data_image0
_cell_length_a       39.6279
_cell_length_b       39.6304
_cell_length_c       16.6613
_cell_angle_alpha    90.0408
_cell_angle_beta     89.9683
_cell_angle_gamma    119.999

_symmetry_space_group_name_H-M    "P 1"
_symmetry_int_tables_number       1

loop_
  _symmetry_equiv_pos_as_xyz
  'x, y, z'

loop_
  _atom_site_label
  _atom_site_occupancy
  _atom_site_fract_x
  _atom_site_fract_y
  _atom_site_fract_z
  _atom_site_thermal_displace_type
  _atom_site_B_iso_or_equiv
  _atom_site_type_symbol
  _atom_site_charge
  C1       1.0000 0.24500  0.87588  0.68715  Biso   1.000  C  -0.037835
  C2       1.0000 0.21652  0.86693  0.74614  Biso   1.000  C  -0.099790
  C3       1.0000 0.21686  0.89646  0.79174  Biso   1.000  C  -0.118618
  C4       1.0000 0.24563  0.93558  0.77945  Biso   1.000  C  0.075694
  C5       1.0000 0.27363  0.94432  0.71916  Biso   1.000  C  -0.119945
  C6       1.0000 0.27339  0.91481  0.67354  Biso   1.000  C  -0.099790
  C7       1.0000 0.24991  0.93773  0.95665  Biso   1.000  C  -0.103659
  C8       1.0000 0.24634  0.96669  0.91255  Biso   1.000  C  0.038415
  C9       1.0000 0.24611  0.96714  0.82747  Biso   1.000  C  0.037390
  C10      1.0000 0.62323  0.11849  0.68714  Biso   1.000  C  -0.037801
  C11      1.0000 0.63205  0.09885  0.74604  Biso   1.000  C  -0.100768
  C12      1.0000 0.60243  0.06962  0.79142  Biso   1.000  C  -0.119945
  C13      1.0000 0.56333  0.05937  0.77914  Biso   1.000  C  0.073075
  C14      1.0000 0.55473  0.07872  0.71883  Biso   1.000  C  -0.119945
  C15      1.0000 0.58431  0.10797  0.67337  Biso   1.000  C  -0.101218
  C16      1.0000 0.56161  0.06106  0.95684  Biso   1.000  C  -0.104429
  C17      1.0000 0.53222  0.02898  0.91232  Biso   1.000  C  0.038301
  C18      1.0000 0.53160  0.02846  0.82716  Biso   1.000  C  0.034684
  C19      1.0000 0.38582  0.25839  0.67767  Biso   1.000  C  -0.037858
  C20      1.0000 0.40359  0.28571  0.73946  Biso   1.000  C  -0.103854
  C21      1.0000 0.43110  0.28422  0.78885  Biso   1.000  C  -0.124128
  C22      1.0000 0.44159  0.25549  0.77745  Biso   1.000  C  0.073245
  C23      1.0000 0.42382  0.22845  0.71477  Biso   1.000  C  -0.120235
  C24      1.0000 0.39614  0.22972  0.66568  Biso   1.000  C  -0.099162
  C25      1.0000 0.43950  0.25242  0.95685  Biso   1.000  C  -0.112282
  C26      1.0000 0.47118  0.25425  0.91214  Biso   1.000  C  0.038413
  C27      1.0000 0.47176  0.25410  0.82696  Biso   1.000  C  0.034684
  C28      1.0000 0.25976  0.62318  0.67780  Biso   1.000  C  -0.037836
  C29      1.0000 0.28771  0.63327  0.73844  Biso   1.000  C  -0.103854
  C30      1.0000 0.28715  0.60469  0.78772  Biso   1.000  C  -0.126429
  C31      1.0000 0.25869  0.56527  0.77747  Biso   1.000  C  0.072915
  C32      1.0000 0.23101  0.55546  0.71594  Biso   1.000  C  -0.124128
  C33      1.0000 0.23138  0.58400  0.66691  Biso   1.000  C  -0.100146
  C34      1.0000 0.25689  0.56489  0.95704  Biso   1.000  C  -0.112282
  C35      1.0000 0.25870  0.53504  0.91229  Biso   1.000  C  0.038117
  C36      1.0000 0.25810  0.53409  0.82709  Biso   1.000  C  0.034736
  C37      1.0000 0.87592  0.38558  0.67744  Biso   1.000  C  -0.037801
  C38      1.0000 0.86571  0.40310  0.73864  Biso   1.000  C  -0.103854
  C39      1.0000 0.89425  0.43092  0.78836  Biso   1.000  C  -0.119641
  C40      1.0000 0.93366  0.44199  0.77782  Biso   1.000  C  0.073075
  C41      1.0000 0.94359  0.42438  0.71591  Biso   1.000  C  -0.119641
  C42      1.0000 0.91509  0.39638  0.66650  Biso   1.000  C  -0.099162
  C43      1.0000 0.93465  0.44035  0.95709  Biso   1.000  C  -0.106311
  C44      1.0000 0.96411  0.47232  0.91247  Biso   1.000  C  0.038503
  C45      1.0000 0.96477  0.47272  0.82732  Biso   1.000  C  0.036791
  C46      1.0000 0.11888  0.24482  0.68670  Biso   1.000  C  -0.037816
  C47      1.0000 0.09932  0.21596  0.74495  Biso   1.000  C  -0.101218
  C48      1.0000 0.06988  0.21578  0.79060  Biso   1.000  C  -0.119107
  C49      1.0000 0.05929  0.24444  0.77918  Biso   1.000  C  0.073080
  C50      1.0000 0.07859  0.27283  0.71962  Biso   1.000  C  -0.119641
  C51      1.0000 0.10810  0.27309  0.67391  Biso   1.000  C  -0.101381
  C52      1.0000 0.06079  0.24754  0.95662  Biso   1.000  C  -0.100768
  C53      1.0000 0.02835  0.24411  0.91238  Biso   1.000  C  0.038277
  C54      1.0000 0.02795  0.24440  0.82726  Biso   1.000  C  0.037122
  C55      1.0000 0.87648  0.23951  0.32011  Biso   1.000  C  -0.037975
  C56      1.0000 0.86667  0.21182  0.25898  Biso   1.000  C  -0.103234
  C57      1.0000 0.89545  0.21282  0.20956  Biso   1.000  C  -0.126429
  C58      1.0000 0.93477  0.24146  0.22019  Biso   1.000  C  0.072532
  C59      1.0000 0.94431  0.26886  0.28225  Biso   1.000  C  -0.120235
  C60      1.0000 0.91557  0.26806  0.33141  Biso   1.000  C  -0.099404
  C61      1.0000 0.93526  0.24384  0.04071  Biso   1.000  C  -0.112282
  C62      1.0000 0.96524  0.24218  0.08518  Biso   1.000  C  0.038390
  C63      1.0000 0.96614  0.24253  0.17038  Biso   1.000  C  0.034874
  C64      1.0000 0.11363  0.62284  0.31949  Biso   1.000  C  -0.037816
  C65      1.0000 0.09593  0.63290  0.25848  Biso   1.000  C  -0.103659
  C66      1.0000 0.06813  0.60431  0.20886  Biso   1.000  C  -0.119107
  C67      1.0000 0.05724  0.56494  0.21925  Biso   1.000  C  0.073245
  C68      1.0000 0.07502  0.55513  0.28093  Biso   1.000  C  -0.124128
  C69      1.0000 0.10301  0.58370  0.33028  Biso   1.000  C  -0.100146
  C70      1.0000 0.05870  0.56409  0.03997  Biso   1.000  C  -0.108312
  C71      1.0000 0.02677  0.53459  0.08464  Biso   1.000  C  0.038503
  C72      1.0000 0.02651  0.53380  0.16979  Biso   1.000  C  0.034456
  C73      1.0000 0.25596  0.38108  0.30996  Biso   1.000  C  -0.037858
  C74      1.0000 0.28503  0.40065  0.25208  Biso   1.000  C  -0.101218
  C75      1.0000 0.28549  0.43024  0.20655  Biso   1.000  C  -0.119945
  C76      1.0000 0.25690  0.44095  0.21768  Biso   1.000  C  0.073080
  C77      1.0000 0.22830  0.42163  0.27689  Biso   1.000  C  -0.119641
  C78      1.0000 0.22777  0.39199  0.32252  Biso   1.000  C  -0.101218
  C79      1.0000 0.25437  0.43984  0.04013  Biso   1.000  C  -0.100768
  C80      1.0000 0.25750  0.47212  0.08463  Biso   1.000  C  0.038304
  C81      1.0000 0.25707  0.47237  0.16975  Biso   1.000  C  0.037074
  C82      1.0000 0.62343  0.25344  0.30914  Biso   1.000  C  -0.037836
  C83      1.0000 0.63247  0.28201  0.25039  Biso   1.000  C  -0.100146
  C84      1.0000 0.60298  0.28181  0.20496  Biso   1.000  C  -0.118618
  C85      1.0000 0.56384  0.25308  0.21714  Biso   1.000  C  0.076654
  C86      1.0000 0.55502  0.22496  0.27713  Biso   1.000  C  -0.119945
  C87      1.0000 0.58448  0.22506  0.32261  Biso   1.000  C  -0.099790
  C88      1.0000 0.56165  0.24918  0.03988  Biso   1.000  C  -0.103659
  C89      1.0000 0.53272  0.25270  0.08433  Biso   1.000  C  0.038415
  C90      1.0000 0.53230  0.25277  0.16942  Biso   1.000  C  0.037512
  C91      1.0000 0.38044  0.87589  0.31012  Biso   1.000  C  -0.037858
  C92      1.0000 0.40004  0.86700  0.25119  Biso   1.000  C  -0.101381
  C93      1.0000 0.42926  0.89656  0.20568  Biso   1.000  C  -0.119641
  C94      1.0000 0.43954  0.93568  0.21789  Biso   1.000  C  0.072833
  C95      1.0000 0.42023  0.94435  0.27822  Biso   1.000  C  -0.119641
  C96      1.0000 0.39097  0.91482  0.32379  Biso   1.000  C  -0.101218
  C97      1.0000 0.43784  0.93738  0.04021  Biso   1.000  C  -0.104429
  C98      1.0000 0.46996  0.96674  0.08472  Biso   1.000  C  0.038176
  C99      1.0000 0.47050  0.96735  0.16987  Biso   1.000  C  0.034527
  C100     1.0000 0.24089  0.11338  0.32009  Biso   1.000  C  -0.037975
  C101     1.0000 0.21343  0.09539  0.25864  Biso   1.000  C  -0.103854
  C102     1.0000 0.21494  0.06787  0.20926  Biso   1.000  C  -0.120235
  C103     1.0000 0.24384  0.05759  0.22030  Biso   1.000  C  0.073245
  C104     1.0000 0.27100  0.07555  0.28266  Biso   1.000  C  -0.119945
  C105     1.0000 0.26971  0.10323  0.33177  Biso   1.000  C  -0.099404
  C106     1.0000 0.24686  0.05986  0.04099  Biso   1.000  C  -0.111100
  C107     1.0000 0.24506  0.02814  0.08538  Biso   1.000  C  0.038392
  C108     1.0000 0.24528  0.02748  0.17055  Biso   1.000  C  0.034064
  C109     1.0000 0.25998  0.62403  0.31879  Biso   1.000  C  -0.037810
  C110     1.0000 0.28785  0.63413  0.25794  Biso   1.000  C  -0.106311
  C111     1.0000 0.28721  0.60552  0.20844  Biso   1.000  C  -0.127136
  C112     1.0000 0.25878  0.56611  0.21880  Biso   1.000  C  0.072030
  C113     1.0000 0.23113  0.55632  0.28045  Biso   1.000  C  -0.119641
  C114     1.0000 0.23156  0.58486  0.32961  Biso   1.000  C  -0.099162
  C115     1.0000 0.25693  0.56507  0.03903  Biso   1.000  C  -0.111100
  C116     1.0000 0.25874  0.53539  0.08435  Biso   1.000  C  0.038117
  C117     1.0000 0.25816  0.53478  0.16955  Biso   1.000  C  0.034736
  C118     1.0000 0.87520  0.38482  0.31828  Biso   1.000  C  -0.037975
  C119     1.0000 0.86514  0.40263  0.25751  Biso   1.000  C  -0.104429
  C120     1.0000 0.89379  0.43050  0.20801  Biso   1.000  C  -0.126429
  C121     1.0000 0.93316  0.44134  0.21841  Biso   1.000  C  0.073301
  C122     1.0000 0.94292  0.42347  0.27998  Biso   1.000  C  -0.118618
  C123     1.0000 0.91433  0.39543  0.32911  Biso   1.000  C  -0.098585
  C124     1.0000 0.93453  0.44023  0.03903  Biso   1.000  C  -0.106311
  C125     1.0000 0.96395  0.47201  0.08416  Biso   1.000  C  0.038503
  C126     1.0000 0.96446  0.47208  0.16931  Biso   1.000  C  0.036791
  C127     1.0000 0.11984  0.24437  0.30873  Biso   1.000  C  -0.037975
  C128     1.0000 0.10078  0.21596  0.24939  Biso   1.000  C  -0.103659
  C129     1.0000 0.07136  0.21581  0.20371  Biso   1.000  C  -0.120235
  C130     1.0000 0.06031  0.24407  0.21620  Biso   1.000  C  0.073245
  C131     1.0000 0.07927  0.27213  0.27658  Biso   1.000  C  -0.120235
  C132     1.0000 0.10871  0.27233  0.32232  Biso   1.000  C  -0.101218
  C133     1.0000 0.06099  0.24745  0.03850  Biso   1.000  C  -0.100768
  C134     1.0000 0.02875  0.24391  0.08381  Biso   1.000  C  0.038301
  C135     1.0000 0.02875  0.24400  0.16894  Biso   1.000  C  0.036414
  C136     1.0000 0.24509  0.87470  0.30860  Biso   1.000  C  -0.037858
  C137     1.0000 0.21700  0.86581  0.24884  Biso   1.000  C  -0.101381
  C138     1.0000 0.21753  0.89540  0.20315  Biso   1.000  C  -0.119641
  C139     1.0000 0.24616  0.93453  0.21607  Biso   1.000  C  0.072833
  C140     1.0000 0.27395  0.94317  0.27676  Biso   1.000  C  -0.119107
  C141     1.0000 0.27347  0.91362  0.32252  Biso   1.000  C  -0.100146
  C142     1.0000 0.25004  0.93753  0.03853  Biso   1.000  C  -0.100768
  C143     1.0000 0.24660  0.96627  0.08388  Biso   1.000  C  0.038277
  C144     1.0000 0.24661  0.96631  0.16899  Biso   1.000  C  0.037122
  C145     1.0000 0.62426  0.11895  0.30922  Biso   1.000  C  -0.037920
  C146     1.0000 0.63305  0.09964  0.24944  Biso   1.000  C  -0.103659
  C147     1.0000 0.60339  0.07057  0.20378  Biso   1.000  C  -0.119641
  C148     1.0000 0.56428  0.06018  0.21664  Biso   1.000  C  0.073075
  C149     1.0000 0.55575  0.07936  0.27753  Biso   1.000  C  -0.119945
  C150     1.0000 0.58535  0.10842  0.32329  Biso   1.000  C  -0.099790
  C151     1.0000 0.56181  0.06122  0.03875  Biso   1.000  C  -0.106770
  C152     1.0000 0.53262  0.02931  0.08400  Biso   1.000  C  0.038176
  C153     1.0000 0.53239  0.02913  0.16916  Biso   1.000  C  0.034684
  C154     1.0000 0.38513  0.25848  0.31843  Biso   1.000  C  -0.037816
  C155     1.0000 0.40278  0.28573  0.25653  Biso   1.000  C  -0.104429
  C156     1.0000 0.43028  0.28425  0.20699  Biso   1.000  C  -0.127081
  C157     1.0000 0.44091  0.25562  0.21846  Biso   1.000  C  0.073301
  C158     1.0000 0.42319  0.22862  0.28117  Biso   1.000  C  -0.119107
  C159     1.0000 0.39551  0.22985  0.33032  Biso   1.000  C  -0.097790
  C160     1.0000 0.43937  0.25248  0.03883  Biso   1.000  C  -0.111100
  C161     1.0000 0.47090  0.25434  0.08409  Biso   1.000  C  0.038413
  C162     1.0000 0.47120  0.25424  0.16928  Biso   1.000  C  0.034064
  C163     1.0000 0.62429  0.25398  0.68763  Biso   1.000  C  -0.037858
  C164     1.0000 0.63330  0.28215  0.74734  Biso   1.000  C  -0.100768
  C165     1.0000 0.60379  0.28175  0.79320  Biso   1.000  C  -0.119945
  C166     1.0000 0.56463  0.25318  0.78048  Biso   1.000  C  0.072909
  C167     1.0000 0.55586  0.22536  0.71974  Biso   1.000  C  -0.119641
  C168     1.0000 0.58533  0.22569  0.67383  Biso   1.000  C  -0.099790
  C169     1.0000 0.56182  0.24920  0.95800  Biso   1.000  C  -0.100768
  C170     1.0000 0.53306  0.25272  0.91299  Biso   1.000  C  0.038341
  C171     1.0000 0.53294  0.25279  0.82789  Biso   1.000  C  0.037057
  C172     1.0000 0.37966  0.87509  0.68783  Biso   1.000  C  -0.037858
  C173     1.0000 0.39896  0.86619  0.74734  Biso   1.000  C  -0.100768
  C174     1.0000 0.42810  0.89576  0.79301  Biso   1.000  C  -0.119641
  C175     1.0000 0.43858  0.93490  0.78039  Biso   1.000  C  0.072833
  C176     1.0000 0.41942  0.94355  0.71974  Biso   1.000  C  -0.119641
  C177     1.0000 0.39028  0.91402  0.67397  Biso   1.000  C  -0.099790
  C178     1.0000 0.43764  0.93722  0.95830  Biso   1.000  C  -0.104429
  C179     1.0000 0.46955  0.96641  0.91304  Biso   1.000  C  0.038176
  C180     1.0000 0.46970  0.96669  0.82788  Biso   1.000  C  0.034527
  C181     1.0000 0.24055  0.11445  0.67952  Biso   1.000  C  -0.037920
  C182     1.0000 0.21331  0.09682  0.74148  Biso   1.000  C  -0.108312
  C183     1.0000 0.21480  0.06931  0.79095  Biso   1.000  C  -0.126728
  C184     1.0000 0.24341  0.05866  0.77933  Biso   1.000  C  0.073301
  C185     1.0000 0.27042  0.07640  0.71661  Biso   1.000  C  -0.119107
  C186     1.0000 0.26918  0.10407  0.66755  Biso   1.000  C  -0.096578
  C187     1.0000 0.24673  0.06005  0.95902  Biso   1.000  C  -0.111100
  C188     1.0000 0.24479  0.02855  0.91344  Biso   1.000  C  0.038392
  C189     1.0000 0.24476  0.02830  0.82825  Biso   1.000  C  0.034247
  C190     1.0000 0.87545  0.23978  0.67912  Biso   1.000  C  -0.037920
  C191     1.0000 0.86564  0.21208  0.74014  Biso   1.000  C  -0.106770
  C192     1.0000 0.89445  0.21313  0.78957  Biso   1.000  C  -0.127136
  C193     1.0000 0.93376  0.24180  0.77893  Biso   1.000  C  0.072915
  C194     1.0000 0.94325  0.26929  0.71713  Biso   1.000  C  -0.119641
  C195     1.0000 0.91451  0.26845  0.66805  Biso   1.000  C  -0.098585
  C196     1.0000 0.93504  0.24389  0.95872  Biso   1.000  C  -0.112282
  C197     1.0000 0.96481  0.24231  0.91315  Biso   1.000  C  0.038117
  C198     1.0000 0.96531  0.24282  0.82795  Biso   1.000  C  0.034874
  C199     1.0000 0.11381  0.62406  0.67878  Biso   1.000  C  -0.037920
  C200     1.0000 0.09626  0.63415  0.74014  Biso   1.000  C  -0.106770
  C201     1.0000 0.06838  0.60550  0.78963  Biso   1.000  C  -0.127081
  C202     1.0000 0.05723  0.56608  0.77863  Biso   1.000  C  0.073106
  C203     1.0000 0.07483  0.55629  0.71646  Biso   1.000  C  -0.119945
  C204     1.0000 0.10291  0.58488  0.66738  Biso   1.000  C  -0.099162
  C205     1.0000 0.05867  0.56435  0.95802  Biso   1.000  C  -0.106311
  C206     1.0000 0.02676  0.53509  0.91293  Biso   1.000  C  0.038493
  C207     1.0000 0.02652  0.53476  0.82777  Biso   1.000  C  0.034527
  C208     1.0000 0.25614  0.38047  0.68757  Biso   1.000  C  -0.037975
  C209     1.0000 0.28485  0.39962  0.74630  Biso   1.000  C  -0.103659
  C210     1.0000 0.28526  0.42915  0.79213  Biso   1.000  C  -0.119641
  C211     1.0000 0.25695  0.44018  0.78045  Biso   1.000  C  0.073075
  C212     1.0000 0.22863  0.42117  0.72058  Biso   1.000  C  -0.120235
  C213     1.0000 0.22817  0.39164  0.67463  Biso   1.000  C  -0.101218
  C214     1.0000 0.25439  0.43969  0.95825  Biso   1.000  C  -0.101381
  C215     1.0000 0.25753  0.47179  0.91316  Biso   1.000  C  0.038176
  C216     1.0000 0.25713  0.47174  0.82803  Biso   1.000  C  0.037154
  C217     1.0000 0.24525  0.99735  0.95586  Biso   1.000  C  -0.003786
  C218     1.0000 0.24597  0.99803  0.78767  Biso   1.000  C  -0.131166
  C219     1.0000 0.50119  0.99757  0.95555  Biso   1.000  C  -0.006119
  C220     1.0000 0.50023  0.99783  0.78725  Biso   1.000  C  -0.136054
  C221     1.0000 0.50222  0.25388  0.95543  Biso   1.000  C  -0.028622
  C222     1.0000 0.50218  0.25284  0.78725  Biso   1.000  C  -0.127661
  C223     1.0000 0.25863  0.50378  0.95562  Biso   1.000  C  -0.014393
  C224     1.0000 0.25682  0.50238  0.78743  Biso   1.000  C  -0.132924
  C225     1.0000 0.99519  0.50384  0.95557  Biso   1.000  C  -0.012147
  C226     1.0000 0.99600  0.50348  0.78749  Biso   1.000  C  -0.126477
  C227     1.0000 0.99644  0.24271  0.95565  Biso   1.000  C  -0.016006
  C228     1.0000 0.99697  0.24438  0.78745  Biso   1.000  C  -0.131166
  C229     1.0000 0.99664  0.24262  0.04161  Biso   1.000  C  -0.016006
  C230     1.0000 0.99795  0.24392  0.20980  Biso   1.000  C  -0.131975
  C231     1.0000 0.99515  0.50363  0.04153  Biso   1.000  C  -0.015234
  C232     1.0000 0.99582  0.50250  0.20960  Biso   1.000  C  -0.127021
  C233     1.0000 0.25863  0.50394  0.04160  Biso   1.000  C  -0.014662
  C234     1.0000 0.25680  0.50318  0.20979  Biso   1.000  C  -0.132924
  C235     1.0000 0.50206  0.25390  0.04135  Biso   1.000  C  -0.003786
  C236     1.0000 0.50146  0.25291  0.20954  Biso   1.000  C  -0.131166
  C237     1.0000 0.50140  0.99774  0.04148  Biso   1.000  C  -0.006119
  C238     1.0000 0.50120  0.99864  0.20979  Biso   1.000  C  -0.136054
  C239     1.0000 0.24539  0.99714  0.04177  Biso   1.000  C  -0.028622
  C240     1.0000 0.24659  0.99703  0.20996  Biso   1.000  C  -0.132924
  C241     1.0000 0.15092  0.24531  0.63886  Biso   1.000  C  0.632008
  C242     1.0000 0.35511  0.25887  0.62694  Biso   1.000  C  0.634033
  C243     1.0000 0.24042  0.14416  0.37072  Biso   1.000  C  0.632008
  C244     1.0000 0.25512  0.34888  0.35773  Biso   1.000  C  0.633082
  C245     1.0000 0.35430  0.25876  0.36924  Biso   1.000  C  0.634805
  C246     1.0000 0.15139  0.24451  0.35774  Biso   1.000  C  0.635763
  C247     1.0000 0.25564  0.34868  0.63870  Biso   1.000  C  0.632330
  C248     1.0000 0.24029  0.14525  0.62860  Biso   1.000  C  0.632330
  C249     1.0000 0.24506  0.84417  0.63923  Biso   1.000  C  0.633757
  C250     1.0000 0.25943  0.65404  0.62719  Biso   1.000  C  0.637555
  C251     1.0000 0.14442  0.65373  0.37070  Biso   1.000  C  0.633082
  C252     1.0000 0.34860  0.84417  0.35793  Biso   1.000  C  0.634033
  C253     1.0000 0.25955  0.65483  0.36959  Biso   1.000  C  0.637555
  C254     1.0000 0.24455  0.84305  0.35787  Biso   1.000  C  0.632008
  C255     1.0000 0.34830  0.84340  0.63900  Biso   1.000  C  0.632008
  C256     1.0000 0.14500  0.65486  0.62807  Biso   1.000  C  0.635763
  C257     1.0000 0.65501  0.15034  0.63943  Biso   1.000  C  0.632008
  C258     1.0000 0.84513  0.35471  0.62617  Biso   1.000  C  0.633082
  C259     1.0000 0.84544  0.23949  0.37076  Biso   1.000  C  0.632330
  C260     1.0000 0.65508  0.25331  0.35713  Biso   1.000  C  0.633697
  C261     1.0000 0.84437  0.35366  0.36900  Biso   1.000  C  0.633082
  C262     1.0000 0.65599  0.15023  0.35818  Biso   1.000  C  0.632330
  C263     1.0000 0.65590  0.25435  0.63844  Biso   1.000  C  0.634805
  C264     1.0000 0.84449  0.23985  0.62836  Biso   1.000  C  0.637041
  H1       1.0000 0.19414  0.83659  0.75490  Biso   1.000  H  0.102597
  H2       1.0000 0.19441  0.88954  0.83693  Biso   1.000  H  0.100837
  H3       1.0000 0.29612  0.97459  0.70951  Biso   1.000  H  0.099633
  H4       1.0000 0.29523  0.92125  0.62727  Biso   1.000  H  0.102446
  H5       1.0000 0.25350  0.91598  0.92376  Biso   1.000  H  0.105909
  H6       1.0000 0.66237  0.10675  0.75496  Biso   1.000  H  0.102948
  H7       1.0000 0.60931  0.05404  0.83649  Biso   1.000  H  0.100883
  H8       1.0000 0.52450  0.07104  0.70910  Biso   1.000  H  0.100802
  H9       1.0000 0.57792  0.12340  0.62713  Biso   1.000  H  0.102446
  H10      1.0000 0.58374  0.08626  0.92427  Biso   1.000  H  0.105909
  H11      1.0000 0.39528  0.30784  0.74811  Biso   1.000  H  0.103514
  H12      1.0000 0.44525  0.30587  0.83611  Biso   1.000  H  0.100960
  H13      1.0000 0.43156  0.20588  0.70592  Biso   1.000  H  0.100064
  H14      1.0000 0.38180  0.20846  0.61794  Biso   1.000  H  0.103886
  H15      1.0000 0.41457  0.25002  0.92430  Biso   1.000  H  0.105133
  H16      1.0000 0.30964  0.66384  0.74633  Biso   1.000  H  0.102446
  H17      1.0000 0.30932  0.61266  0.83400  Biso   1.000  H  0.100837
  H18      1.0000 0.20863  0.52501  0.70793  Biso   1.000  H  0.099633
  H19      1.0000 0.20960  0.57658  0.62006  Biso   1.000  H  0.102446
  H20      1.0000 0.25448  0.58742  0.92454  Biso   1.000  H  0.106075
  H21      1.0000 0.83512  0.39439  0.74651  Biso   1.000  H  0.102446
  H22      1.0000 0.88626  0.44491  0.83511  Biso   1.000  H  0.100960
  H23      1.0000 0.97406  0.43256  0.70782  Biso   1.000  H  0.100802
  H24      1.0000 0.92253  0.38220  0.61925  Biso   1.000  H  0.102446
  H25      1.0000 0.91238  0.41524  0.92448  Biso   1.000  H  0.105002
  H26      1.0000 0.10745  0.19367  0.75311  Biso   1.000  H  0.102597
  H27      1.0000 0.05436  0.19303  0.83517  Biso   1.000  H  0.101977
  H28      1.0000 0.07067  0.29525  0.71062  Biso   1.000  H  0.100802
  H29      1.0000 0.12349  0.29524  0.62822  Biso   1.000  H  0.103514
  H30      1.0000 0.08620  0.25126  0.92384  Biso   1.000  H  0.105883
  H31      1.0000 0.83616  0.18977  0.25081  Biso   1.000  H  0.102597
  H32      1.0000 0.88770  0.19087  0.16283  Biso   1.000  H  0.100432
  H33      1.0000 0.97468  0.29136  0.29054  Biso   1.000  H  0.100432
  H34      1.0000 0.92275  0.28962  0.37863  Biso   1.000  H  0.105213
  H35      1.0000 0.91265  0.24606  0.07343  Biso   1.000  H  0.105002
  H36      1.0000 0.10451  0.66346  0.25071  Biso   1.000  H  0.102597
  H37      1.0000 0.05402  0.61220  0.16229  Biso   1.000  H  0.101567
  H38      1.0000 0.06700  0.52470  0.28891  Biso   1.000  H  0.101345
  H39      1.0000 0.11730  0.57635  0.37735  Biso   1.000  H  0.103886
  H40      1.0000 0.08390  0.58624  0.07252  Biso   1.000  H  0.105909
  H41      1.0000 0.30726  0.39242  0.24412  Biso   1.000  H  0.102446
  H42      1.0000 0.30843  0.44577  0.16229  Biso   1.000  H  0.100432
  H43      1.0000 0.20593  0.42964  0.28568  Biso   1.000  H  0.100837
  H44      1.0000 0.20547  0.37661  0.36795  Biso   1.000  H  0.104147
  H45      1.0000 0.25093  0.41452  0.07272  Biso   1.000  H  0.106936
  H46      1.0000 0.66282  0.30438  0.24173  Biso   1.000  H  0.103514
  H47      1.0000 0.60996  0.30435  0.16000  Biso   1.000  H  0.100837
  H48      1.0000 0.52473  0.20249  0.28669  Biso   1.000  H  0.099633
  H49      1.0000 0.57798  0.20315  0.36869  Biso   1.000  H  0.103713
  H50      1.0000 0.58341  0.24553  0.07252  Biso   1.000  H  0.105133
  H51      1.0000 0.39212  0.83667  0.24237  Biso   1.000  H  0.102597
  H52      1.0000 0.44480  0.88961  0.16056  Biso   1.000  H  0.100960
  H53      1.0000 0.42794  0.97460  0.28790  Biso   1.000  H  0.100064
  H54      1.0000 0.37557  0.92127  0.37005  Biso   1.000  H  0.103514
  H55      1.0000 0.41265  0.91526  0.07280  Biso   1.000  H  0.107162
  H56      1.0000 0.19118  0.10355  0.25025  Biso   1.000  H  0.103713
  H57      1.0000 0.19320  0.05356  0.16225  Biso   1.000  H  0.100883
  H58      1.0000 0.29369  0.06796  0.29123  Biso   1.000  H  0.100064
  H59      1.0000 0.29108  0.11773  0.37924  Biso   1.000  H  0.103886
  H60      1.0000 0.24929  0.08476  0.07378  Biso   1.000  H  0.105133
  H61      1.0000 0.30973  0.66472  0.25007  Biso   1.000  H  0.102948
  H62      1.0000 0.30931  0.61349  0.16197  Biso   1.000  H  0.100837
  H63      1.0000 0.20876  0.52588  0.28846  Biso   1.000  H  0.100802
  H64      1.0000 0.20981  0.57747  0.37654  Biso   1.000  H  0.102446
  H65      1.0000 0.25455  0.58773  0.07111  Biso   1.000  H  0.105883
  H66      1.0000 0.83457  0.39401  0.24970  Biso   1.000  H  0.102597
  H67      1.0000 0.88591  0.44468  0.16156  Biso   1.000  H  0.101977
  H68      1.0000 0.97334  0.43148  0.28796  Biso   1.000  H  0.100837
  H69      1.0000 0.92164  0.38102  0.37601  Biso   1.000  H  0.103514
  H70      1.0000 0.91216  0.41504  0.07125  Biso   1.000  H  0.105002
  H71      1.0000 0.10914  0.19386  0.24064  Biso   1.000  H  0.101567
  H72      1.0000 0.05614  0.19329  0.15850  Biso   1.000  H  0.100960
  H73      1.0000 0.07102  0.29427  0.28635  Biso   1.000  H  0.101345
  H74      1.0000 0.12370  0.29415  0.36883  Biso   1.000  H  0.103514
  H75      1.0000 0.08655  0.25110  0.07047  Biso   1.000  H  0.106644
  H76      1.0000 0.19459  0.83548  0.23987  Biso   1.000  H  0.101895
  H77      1.0000 0.19524  0.88851  0.15764  Biso   1.000  H  0.100960
  H78      1.0000 0.29638  0.97342  0.28680  Biso   1.000  H  0.100802
  H79      1.0000 0.29502  0.92002  0.36936  Biso   1.000  H  0.104147
  H80      1.0000 0.25373  0.91563  0.07045  Biso   1.000  H  0.105883
  H81      1.0000 0.66336  0.10753  0.24033  Biso   1.000  H  0.102117
  H82      1.0000 0.61025  0.05516  0.15822  Biso   1.000  H  0.101567
  H83      1.0000 0.52552  0.07162  0.28762  Biso   1.000  H  0.101345
  H84      1.0000 0.57898  0.12361  0.37015  Biso   1.000  H  0.103713
  H85      1.0000 0.58407  0.08656  0.07078  Biso   1.000  H  0.105909
  H86      1.0000 0.39433  0.30776  0.24791  Biso   1.000  H  0.102948
  H87      1.0000 0.44435  0.30584  0.15963  Biso   1.000  H  0.100960
  H88      1.0000 0.43100  0.20610  0.29000  Biso   1.000  H  0.101302
  H89      1.0000 0.38120  0.20861  0.37807  Biso   1.000  H  0.105213
  H90      1.0000 0.41435  0.25014  0.07094  Biso   1.000  H  0.106075
  H91      1.0000 0.66366  0.30449  0.75619  Biso   1.000  H  0.102117
  H92      1.0000 0.61078  0.30407  0.83872  Biso   1.000  H  0.101977
  H93      1.0000 0.52556  0.20300  0.70982  Biso   1.000  H  0.099633
  H94      1.0000 0.57882  0.20408  0.62702  Biso   1.000  H  0.104147
  H95      1.0000 0.58370  0.24555  0.92582  Biso   1.000  H  0.105883
  H96      1.0000 0.39100  0.83585  0.75623  Biso   1.000  H  0.101567
  H97      1.0000 0.44352  0.88882  0.83837  Biso   1.000  H  0.100960
  H98      1.0000 0.42724  0.97381  0.70984  Biso   1.000  H  0.100064
  H99      1.0000 0.37510  0.92047  0.62728  Biso   1.000  H  0.103514
  H100     1.0000 0.41229  0.91498  0.92630  Biso   1.000  H  0.107162
  H101     1.0000 0.19126  0.10525  0.75022  Biso   1.000  H  0.101567
  H102     1.0000 0.19321  0.05525  0.83834  Biso   1.000  H  0.100960
  H103     1.0000 0.29294  0.06859  0.70767  Biso   1.000  H  0.101302
  H104     1.0000 0.29042  0.11838  0.61978  Biso   1.000  H  0.105213
  H105     1.0000 0.24904  0.08510  0.92713  Biso   1.000  H  0.105213
  H106     1.0000 0.83513  0.19001  0.74822  Biso   1.000  H  0.102597
  H107     1.0000 0.88671  0.19116  0.83619  Biso   1.000  H  0.100837
  H108     1.0000 0.97360  0.29187  0.70895  Biso   1.000  H  0.100802
  H109     1.0000 0.92165  0.29006  0.62100  Biso   1.000  H  0.103886
  H110     1.0000 0.91226  0.24612  0.92685  Biso   1.000  H  0.105883
  H111     1.0000 0.10509  0.66475  0.74842  Biso   1.000  H  0.102948
  H112     1.0000 0.05442  0.61342  0.83658  Biso   1.000  H  0.100837
  H113     1.0000 0.06660  0.52583  0.70798  Biso   1.000  H  0.100802
  H114     1.0000 0.11711  0.57753  0.62005  Biso   1.000  H  0.103886
  H115     1.0000 0.08384  0.58672  0.92576  Biso   1.000  H  0.106075
  H116     1.0000 0.30694  0.39121  0.75445  Biso   1.000  H  0.102948
  H117     1.0000 0.30801  0.44443  0.83685  Biso   1.000  H  0.100883
  H118     1.0000 0.20646  0.42943  0.71143  Biso   1.000  H  0.100064
  H119     1.0000 0.20614  0.37659  0.62854  Biso   1.000  H  0.103514
  H120     1.0000 0.25096  0.41424  0.92613  Biso   1.000  H  0.106927
  H121     1.0000 0.24499  0.99763  0.72223  Biso   1.000  H  0.100064
  H122     1.0000 0.50045  0.99733  0.72178  Biso   1.000  H  0.101302
  H123     1.0000 0.50284  0.25371  0.72180  Biso   1.000  H  0.100064
  H124     1.0000 0.25723  0.50237  0.72197  Biso   1.000  H  0.101345
  H125     1.0000 0.99568  0.50392  0.72205  Biso   1.000  H  0.100432
  H126     1.0000 0.99662  0.24386  0.72200  Biso   1.000  H  0.100432
  H127     1.0000 0.99789  0.24326  0.27525  Biso   1.000  H  0.101345
  H128     1.0000 0.99547  0.50270  0.27505  Biso   1.000  H  0.100432
  H129     1.0000 0.25718  0.50341  0.27525  Biso   1.000  H  0.100802
  H130     1.0000 0.50189  0.25378  0.27499  Biso   1.000  H  0.100064
  H131     1.0000 0.50170  0.99841  0.27525  Biso   1.000  H  0.099633
  H132     1.0000 0.24577  0.99633  0.27541  Biso   1.000  H  0.100064
  H133     1.0000 0.37150  0.34913  0.61225  Biso   1.000  H  0.398748
  H134     1.0000 0.19262  0.21310  0.76169  Biso   1.000  H  0.398748
  H135     1.0000 0.28702  0.30664  0.23528  Biso   1.000  H  0.398748
  H136     1.0000 0.15027  0.12824  0.38498  Biso   1.000  H  0.399078
  H137     1.0000 0.27896  0.22284  0.67401  Biso   1.000  H  0.421034
  H138     1.0000 0.27672  0.22021  0.32347  Biso   1.000  H  0.420123
  H139     1.0000 0.14908  0.20403  0.50117  Biso   1.000  H  0.417293
  H140     1.0000 0.29603  0.35056  0.49558  Biso   1.000  H  0.417293
  H141     1.0000 0.34963  0.72843  0.61261  Biso   1.000  H  0.405145
  H142     1.0000 0.21224  0.77009  0.76171  Biso   1.000  H  0.393273
  H143     1.0000 0.30680  0.77001  0.23574  Biso   1.000  H  0.412855
  H144     1.0000 0.12818  0.72806  0.38480  Biso   1.000  H  0.398334
  H145     1.0000 0.22276  0.69371  0.67415  Biso   1.000  H  0.423355
  H146     1.0000 0.22049  0.69352  0.32360  Biso   1.000  H  0.422669
  H147     1.0000 0.20390  0.80481  0.50138  Biso   1.000  H  0.425751
  H148     1.0000 0.35046  0.80493  0.49589  Biso   1.000  H  0.426447
  H149     1.0000 0.77077  0.37069  0.61117  Biso   1.000  H  0.399078
  H150     1.0000 0.72914  0.19236  0.76192  Biso   1.000  H  0.405145
  H151     1.0000 0.72932  0.28593  0.23493  Biso   1.000  H  0.398628
  H152     1.0000 0.77120  0.14925  0.38567  Biso   1.000  H  0.398334
  H153     1.0000 0.80554  0.27874  0.67367  Biso   1.000  H  0.422818
  H154     1.0000 0.80570  0.27583  0.32324  Biso   1.000  H  0.422818
  H155     1.0000 0.69448  0.14832  0.50185  Biso   1.000  H  0.425840
  H156     1.0000 0.69423  0.29473  0.49479  Biso   1.000  H  0.410764
  O1       1.0000 0.16184  0.22120  0.65896  Biso   1.000  O  -0.638401
  O2       1.0000 0.16504  0.26973  0.58137  Biso   1.000  O  -0.621397
  O3       1.0000 0.34775  0.28636  0.63857  Biso   1.000  O  -0.640551
  O4       1.0000 0.33776  0.23117  0.57658  Biso   1.000  O  -0.623188
  O5       1.0000 0.21301  0.15162  0.35890  Biso   1.000  O  -0.640238
  O6       1.0000 0.26807  0.16148  0.42117  Biso   1.000  O  -0.623140
  O7       1.0000 0.27907  0.33771  0.33773  Biso   1.000  O  -0.626927
  O8       1.0000 0.23059  0.33488  0.41509  Biso   1.000  O  -0.619152
  O9       1.0000 0.34749  0.28671  0.35978  Biso   1.000  O  -0.625215
  O10      1.0000 0.33621  0.23013  0.41725  Biso   1.000  O  -0.623438
  O11      1.0000 0.16331  0.22130  0.33680  Biso   1.000  O  -0.625582
  O12      1.0000 0.16390  0.26771  0.41758  Biso   1.000  O  -0.615996
  O13      1.0000 0.27862  0.33652  0.65984  Biso   1.000  O  -0.626176
  O14      1.0000 0.23244  0.33623  0.57892  Biso   1.000  O  -0.622587
  O15      1.0000 0.21239  0.15216  0.63796  Biso   1.000  O  -0.621366
  O16      1.0000 0.26893  0.16321  0.58052  Biso   1.000  O  -0.623267
  O17      1.0000 0.17755  0.21629  0.50100  Biso   1.000  O  -1.063193
  O18      1.0000 0.30313  0.27137  0.49654  Biso   1.000  O  -1.198185
  O19      1.0000 0.22798  0.19643  0.50077  Biso   1.000  O  -1.185318
  O20      1.0000 0.28364  0.32208  0.49584  Biso   1.000  O  -1.059722
  O21      1.0000 0.23582  0.26562  0.58791  Biso   1.000  O  -1.185227
  O22      1.0000 0.27119  0.23057  0.62449  Biso   1.000  O  -1.061486
  O23      1.0000 0.26900  0.22811  0.37288  Biso   1.000  O  -1.059722
  O24      1.0000 0.23421  0.26382  0.40902  Biso   1.000  O  -1.185227
  O25      1.0000 0.21049  0.20643  0.73592  Biso   1.000  O  -0.975087
  O26      1.0000 0.34851  0.35058  0.59799  Biso   1.000  O  -0.974359
  O27      1.0000 0.14890  0.15130  0.39904  Biso   1.000  O  -0.960837
  O28      1.0000 0.29351  0.28869  0.26122  Biso   1.000  O  -0.959043
  O29      1.0000 0.22090  0.80917  0.65943  Biso   1.000  O  -0.640262
  O30      1.0000 0.26930  0.85438  0.58139  Biso   1.000  O  -0.623453
  O31      1.0000 0.28671  0.68903  0.63851  Biso   1.000  O  -0.627689
  O32      1.0000 0.23149  0.64339  0.57735  Biso   1.000  O  -0.622639
  O33      1.0000 0.15184  0.68863  0.35960  Biso   1.000  O  -0.634224
  O34      1.0000 0.16170  0.64319  0.42078  Biso   1.000  O  -0.622545
  O35      1.0000 0.33774  0.80915  0.33771  Biso   1.000  O  -0.640238
  O36      1.0000 0.33455  0.85440  0.41570  Biso   1.000  O  -0.623188
  O37      1.0000 0.28731  0.68973  0.36040  Biso   1.000  O  -0.625762
  O38      1.0000 0.23072  0.64399  0.41722  Biso   1.000  O  -0.619187
  O39      1.0000 0.22126  0.80798  0.33675  Biso   1.000  O  -0.619731
  O40      1.0000 0.26738  0.85358  0.41827  Biso   1.000  O  -0.623459
  O41      1.0000 0.33647  0.80836  0.66036  Biso   1.000  O  -0.625258
  O42      1.0000 0.33583  0.85385  0.57878  Biso   1.000  O  -0.623188
  O43      1.0000 0.15200  0.68973  0.63703  Biso   1.000  O  -0.625582
  O44      1.0000 0.16315  0.64406  0.58074  Biso   1.000  O  -0.620805
  O45      1.0000 0.21602  0.78848  0.50125  Biso   1.000  O  -1.052860
  O46      1.0000 0.27145  0.71836  0.49684  Biso   1.000  O  -1.183011
  O47      1.0000 0.19655  0.71828  0.50088  Biso   1.000  O  -1.168696
  O48      1.0000 0.32199  0.78861  0.49608  Biso   1.000  O  -1.060143
  O49      1.0000 0.26542  0.77972  0.58839  Biso   1.000  O  -1.184080
  O50      1.0000 0.23050  0.70928  0.62475  Biso   1.000  O  -1.056720
  O51      1.0000 0.22831  0.70910  0.37304  Biso   1.000  O  -1.055503
  O52      1.0000 0.26374  0.77960  0.40907  Biso   1.000  O  -1.181148
  O53      1.0000 0.20580  0.74558  0.73603  Biso   1.000  O  -0.975087
  O54      1.0000 0.35082  0.75275  0.59825  Biso   1.000  O  -0.962159
  O55      1.0000 0.15129  0.75238  0.39926  Biso   1.000  O  -0.974359
  O56      1.0000 0.28899  0.74545  0.26149  Biso   1.000  O  -0.965945
  O57      1.0000 0.69001  0.16130  0.65988  Biso   1.000  O  -0.640238
  O58      1.0000 0.64480  0.16430  0.58150  Biso   1.000  O  -0.623265
  O59      1.0000 0.81019  0.34722  0.63708  Biso   1.000  O  -0.634224
  O60      1.0000 0.85580  0.33744  0.57628  Biso   1.000  O  -0.622522
  O61      1.0000 0.81053  0.21206  0.35940  Biso   1.000  O  -0.640403
  O62      1.0000 0.85590  0.26739  0.42066  Biso   1.000  O  -0.622601
  O63      1.0000 0.69010  0.27740  0.33689  Biso   1.000  O  -0.640403
  O64      1.0000 0.64479  0.22914  0.41507  Biso   1.000  O  -0.623265
  O65      1.0000 0.80949  0.34657  0.35981  Biso   1.000  O  -0.625598
  O66      1.0000 0.85517  0.33563  0.41654  Biso   1.000  O  -0.623183
  O67      1.0000 0.69104  0.16197  0.33698  Biso   1.000  O  -0.621727
  O68      1.0000 0.64551  0.16274  0.41838  Biso   1.000  O  -0.623265
  O69      1.0000 0.69097  0.27766  0.65954  Biso   1.000  O  -0.625452
  O70      1.0000 0.64539  0.23139  0.57823  Biso   1.000  O  -0.623188
  O71      1.0000 0.80965  0.21202  0.63770  Biso   1.000  O  -0.625198
  O72      1.0000 0.85519  0.26858  0.58052  Biso   1.000  O  -0.623188
  O73      1.0000 0.71069  0.17678  0.50148  Biso   1.000  O  -1.064340
  O74      1.0000 0.78078  0.30223  0.49603  Biso   1.000  O  -1.185318
  O75      1.0000 0.78091  0.22741  0.50081  Biso   1.000  O  -1.176076
  O76      1.0000 0.71056  0.28262  0.49521  Biso   1.000  O  -1.064340
  O77      1.0000 0.71948  0.23515  0.58795  Biso   1.000  O  -1.181775
  O78      1.0000 0.78996  0.27079  0.62425  Biso   1.000  O  -1.055503
  O79      1.0000 0.79004  0.26812  0.37257  Biso   1.000  O  -1.055503
  O80      1.0000 0.71955  0.23313  0.40874  Biso   1.000  O  -1.181775
  O81      1.0000 0.75364  0.21033  0.73611  Biso   1.000  O  -0.975087
  O82      1.0000 0.74645  0.34755  0.59692  Biso   1.000  O  -0.974359
  O83      1.0000 0.74678  0.14793  0.39970  Biso   1.000  O  -0.973402
  O84      1.0000 0.75380  0.29244  0.26074  Biso   1.000  O  -0.965945
  Zr1      1.0000 0.20642  0.20628  0.60958  Biso   1.000  Zr  2.354980
  Zr2      1.0000 0.29749  0.29561  0.60189  Biso   1.000  Zr  2.351564
  Zr3      1.0000 0.20398  0.20214  0.39523  Biso   1.000  Zr  2.352831
  Zr4      1.0000 0.29357  0.29296  0.38754  Biso   1.000  Zr  2.353969
  Zr5      1.0000 0.21446  0.28548  0.49834  Biso   1.000  Zr  2.353235
  Zr6      1.0000 0.28625  0.21307  0.49879  Biso   1.000  Zr  2.359560
  Zr7      1.0000 0.20603  0.74966  0.60971  Biso   1.000  Zr  2.353969
  Zr8      1.0000 0.29563  0.74831  0.60217  Biso   1.000  Zr  2.352831
  Zr9      1.0000 0.20209  0.74804  0.39544  Biso   1.000  Zr  2.352831
  Zr10     1.0000 0.29312  0.74962  0.38777  Biso   1.000  Zr  2.353969
  Zr11     1.0000 0.28520  0.82090  0.49864  Biso   1.000  Zr  2.350759
  Zr12     1.0000 0.21325  0.67673  0.49898  Biso   1.000  Zr  2.352748
  Zr13     1.0000 0.74956  0.20595  0.60984  Biso   1.000  Zr  2.354980
  Zr14     1.0000 0.75091  0.29682  0.60128  Biso   1.000  Zr  2.351564
  Zr15     1.0000 0.75107  0.20303  0.39544  Biso   1.000  Zr  2.351302
  Zr16     1.0000 0.74955  0.29247  0.38701  Biso   1.000  Zr  2.354749
  Zr17     1.0000 0.67825  0.21347  0.49832  Biso   1.000  Zr  2.350854
  Zr18     1.0000 0.82243  0.28567  0.49846  Biso   1.000  Zr  2.355057
