data_image0
_cell_length_a       14.7797
_cell_length_b       14.7794
_cell_length_c       14.7793
_cell_angle_alpha    60.0013
_cell_angle_beta     59.9999
_cell_angle_gamma    60.0001

_symmetry_space_group_name_H-M    "P 1"
_symmetry_int_tables_number       1

loop_
  _symmetry_equiv_pos_as_xyz
  'x, y, z'

loop_
  _atom_site_label
  _atom_site_occupancy
  _atom_site_fract_x
  _atom_site_fract_y
  _atom_site_fract_z
  _atom_site_thermal_displace_type
  _atom_site_B_iso_or_equiv
  _atom_site_type_symbol
  _atom_site_charge
  Zr1      1.0000 0.88033  0.88033  0.11967  Biso   1.000  Zr  2.370945
  Zr2      1.0000 0.11967  0.11967  0.88033  Biso   1.000  Zr  2.370945
  Zr3      1.0000 0.11967  0.88033  0.88033  Biso   1.000  Zr  2.370945
  Zr4      1.0000 0.88033  0.11967  0.11967  Biso   1.000  Zr  2.370945
  Zr5      1.0000 0.88033  0.11967  0.88033  Biso   1.000  Zr  2.370945
  Zr6      1.0000 0.11967  0.88033  0.11967  Biso   1.000  Zr  2.370945
  O1       1.0000 0.06738  0.06738  0.06738  Biso   1.000  O  -1.072237
  O2       1.0000 0.06738  0.06738  0.79786  Biso   1.000  O  -1.072237
  O3       1.0000 0.06738  0.79786  0.06738  Biso   1.000  O  -1.072237
  O4       1.0000 0.79786  0.06738  0.06738  Biso   1.000  O  -1.072237
  O5       1.0000 0.95031  0.95030  0.95030  Biso   1.000  O  -1.152027
  O6       1.0000 0.95030  0.95030  0.14909  Biso   1.000  O  -1.152027
  O7       1.0000 0.95030  0.14909  0.95031  Biso   1.000  O  -1.152027
  O8       1.0000 0.14909  0.95030  0.95030  Biso   1.000  O  -1.152027
  O9       1.0000 0.92028  0.73812  0.07401  Biso   1.000  O  -0.617569
  O10      1.0000 0.07401  0.26759  0.92028  Biso   1.000  O  -0.617569
  O11      1.0000 0.73812  0.92028  0.26759  Biso   1.000  O  -0.617569
  O12      1.0000 0.26759  0.07401  0.73812  Biso   1.000  O  -0.617595
  O13      1.0000 0.07401  0.92028  0.73812  Biso   1.000  O  -0.617595
  O14      1.0000 0.92028  0.07401  0.26759  Biso   1.000  O  -0.617595
  O15      1.0000 0.26760  0.73812  0.92028  Biso   1.000  O  -0.617595
  O16      1.0000 0.73812  0.26759  0.07401  Biso   1.000  O  -0.617595
  O17      1.0000 0.73812  0.07400  0.92028  Biso   1.000  O  -0.617595
  O18      1.0000 0.26759  0.92028  0.07401  Biso   1.000  O  -0.617595
  O19      1.0000 0.92028  0.26760  0.73812  Biso   1.000  O  -0.617595
  O20      1.0000 0.07401  0.73812  0.26759  Biso   1.000  O  -0.617595
  O21      1.0000 0.07401  0.26759  0.73812  Biso   1.000  O  -0.617595
  O22      1.0000 0.92028  0.73812  0.26759  Biso   1.000  O  -0.617595
  O23      1.0000 0.26759  0.07401  0.92028  Biso   1.000  O  -0.617595
  O24      1.0000 0.73812  0.92028  0.07401  Biso   1.000  O  -0.617595
  O25      1.0000 0.92028  0.07401  0.73812  Biso   1.000  O  -0.617569
  O26      1.0000 0.07401  0.92028  0.26759  Biso   1.000  O  -0.617569
  O27      1.0000 0.73812  0.26759  0.92028  Biso   1.000  O  -0.617595
  O28      1.0000 0.26759  0.73812  0.07401  Biso   1.000  O  -0.617595
  O29      1.0000 0.26760  0.92028  0.73812  Biso   1.000  O  -0.617595
  O30      1.0000 0.73812  0.07401  0.26759  Biso   1.000  O  -0.617595
  O31      1.0000 0.07401  0.73812  0.92028  Biso   1.000  O  -0.617595
  O32      1.0000 0.92028  0.26759  0.07401  Biso   1.000  O  -0.617595
  H1       1.0000 0.09415  0.09415  0.71754  Biso   1.000  H  0.418878
  H2       1.0000 0.71754  0.09415  0.09415  Biso   1.000  H  0.418878
  H3       1.0000 0.09415  0.09415  0.09415  Biso   1.000  H  0.418878
  H4       1.0000 0.09415  0.71754  0.09415  Biso   1.000  H  0.418878
  H5       1.0000 0.13939  0.59093  0.84906  Biso   1.000  H  0.113142
  H6       1.0000 0.13940  0.42062  0.84905  Biso   1.000  H  0.113142
  H7       1.0000 0.84906  0.42061  0.13939  Biso   1.000  H  0.113142
  H8       1.0000 0.84905  0.59093  0.13940  Biso   1.000  H  0.113142
  H9       1.0000 0.59093  0.84905  0.42062  Biso   1.000  H  0.113142
  H10      1.0000 0.42061  0.84906  0.59093  Biso   1.000  H  0.113142
  H11      1.0000 0.42062  0.13940  0.59093  Biso   1.000  H  0.113142
  H12      1.0000 0.59093  0.13939  0.42061  Biso   1.000  H  0.113142
  H13      1.0000 0.13940  0.84906  0.59093  Biso   1.000  H  0.113142
  H14      1.0000 0.13940  0.84905  0.42061  Biso   1.000  H  0.113142
  H15      1.0000 0.84906  0.13939  0.42061  Biso   1.000  H  0.113142
  H16      1.0000 0.84906  0.13940  0.59093  Biso   1.000  H  0.113142
  H17      1.0000 0.59093  0.42062  0.13940  Biso   1.000  H  0.113142
  H18      1.0000 0.42062  0.59093  0.13940  Biso   1.000  H  0.113273
  H19      1.0000 0.42061  0.59093  0.84906  Biso   1.000  H  0.113142
  H20      1.0000 0.59093  0.42062  0.84906  Biso   1.000  H  0.113273
  H21      1.0000 0.59093  0.13939  0.84906  Biso   1.000  H  0.113142
  H22      1.0000 0.42062  0.13940  0.84906  Biso   1.000  H  0.113142
  H23      1.0000 0.42061  0.84906  0.13939  Biso   1.000  H  0.113142
  H24      1.0000 0.59093  0.84906  0.13940  Biso   1.000  H  0.113142
  H25      1.0000 0.13940  0.59093  0.42062  Biso   1.000  H  0.113142
  H26      1.0000 0.13940  0.42062  0.59093  Biso   1.000  H  0.113142
  H27      1.0000 0.84906  0.42062  0.59093  Biso   1.000  H  0.113142
  H28      1.0000 0.84906  0.59093  0.42062  Biso   1.000  H  0.113142
  C1       1.0000 0.99445  0.41098  0.99444  Biso   1.000  C  -0.030536
  C2       1.0000 0.99445  0.60012  0.99445  Biso   1.000  C  -0.030536
  C3       1.0000 0.07630  0.45880  0.91204  Biso   1.000  C  -0.092628
  C4       1.0000 0.91205  0.45880  0.07629  Biso   1.000  C  -0.092628
  C5       1.0000 0.91204  0.55286  0.07629  Biso   1.000  C  -0.092628
  C6       1.0000 0.07629  0.55286  0.91205  Biso   1.000  C  -0.092628
  C7       1.0000 0.99602  0.30833  0.99601  Biso   1.000  C  0.641266
  C8       1.0000 0.99601  0.69965  0.99601  Biso   1.000  C  0.641266
  C9       1.0000 0.41098  0.99445  0.60012  Biso   1.000  C  -0.030536
  C10      1.0000 0.60012  0.99445  0.41098  Biso   1.000  C  -0.030536
  C11      1.0000 0.45880  0.91205  0.55286  Biso   1.000  C  -0.092628
  C12      1.0000 0.45881  0.07629  0.55286  Biso   1.000  C  -0.095519
  C13      1.0000 0.55286  0.07629  0.45880  Biso   1.000  C  -0.092628
  C14      1.0000 0.55286  0.91204  0.45881  Biso   1.000  C  -0.095519
  C15      1.0000 0.30833  0.99602  0.69965  Biso   1.000  C  0.641266
  C16      1.0000 0.69965  0.99601  0.30832  Biso   1.000  C  0.641266
  C17      1.0000 0.99445  0.99445  0.41098  Biso   1.000  C  -0.030536
  C18      1.0000 0.99445  0.99445  0.60012  Biso   1.000  C  -0.030536
  C19      1.0000 0.07629  0.91204  0.45880  Biso   1.000  C  -0.092628
  C20      1.0000 0.91205  0.07629  0.45881  Biso   1.000  C  -0.092628
  C21      1.0000 0.91205  0.07629  0.55286  Biso   1.000  C  -0.092628
  C22      1.0000 0.07629  0.91205  0.55286  Biso   1.000  C  -0.092628
  C23      1.0000 0.99602  0.99601  0.30832  Biso   1.000  C  0.643939
  C24      1.0000 0.99601  0.99601  0.69965  Biso   1.000  C  0.643939
  C25      1.0000 0.41098  0.60012  0.99445  Biso   1.000  C  -0.030536
  C26      1.0000 0.60012  0.41098  0.99445  Biso   1.000  C  -0.030536
  C27      1.0000 0.45880  0.55286  0.07629  Biso   1.000  C  -0.092628
  C28      1.0000 0.45881  0.55286  0.91205  Biso   1.000  C  -0.092628
  C29      1.0000 0.55286  0.45880  0.91204  Biso   1.000  C  -0.092628
  C30      1.0000 0.55286  0.45881  0.07629  Biso   1.000  C  -0.095519
  C31      1.0000 0.30832  0.69965  0.99601  Biso   1.000  C  0.641266
  C32      1.0000 0.69965  0.30833  0.99601  Biso   1.000  C  0.641266
  C33      1.0000 0.41098  0.99445  0.99445  Biso   1.000  C  -0.030536
  C34      1.0000 0.60012  0.99445  0.99445  Biso   1.000  C  -0.030536
  C35      1.0000 0.45881  0.07629  0.91204  Biso   1.000  C  -0.092628
  C36      1.0000 0.45880  0.91205  0.07629  Biso   1.000  C  -0.092628
  C37      1.0000 0.55286  0.91205  0.07629  Biso   1.000  C  -0.092628
  C38      1.0000 0.55286  0.07629  0.91205  Biso   1.000  C  -0.092628
  C39      1.0000 0.30833  0.99601  0.99601  Biso   1.000  C  0.641266
  C40      1.0000 0.69965  0.99601  0.99601  Biso   1.000  C  0.641266
  C41      1.0000 0.99445  0.41098  0.60012  Biso   1.000  C  -0.030536
  C42      1.0000 0.99445  0.60012  0.41098  Biso   1.000  C  -0.030536
  C43      1.0000 0.07629  0.45881  0.55286  Biso   1.000  C  -0.092628
  C44      1.0000 0.91205  0.45880  0.55286  Biso   1.000  C  -0.092628
  C45      1.0000 0.91205  0.55286  0.45881  Biso   1.000  C  -0.092628
  C46      1.0000 0.07629  0.55286  0.45880  Biso   1.000  C  -0.092628
  C47      1.0000 0.99601  0.30833  0.69965  Biso   1.000  C  0.641266
  C48      1.0000 0.99601  0.69965  0.30833  Biso   1.000  C  0.641266
