data_image0
_cell_length_a       12.6668
_cell_length_b       14.2938
_cell_length_c       35.0539
_cell_angle_alpha    90
_cell_angle_beta     90
_cell_angle_gamma    90

_symmetry_space_group_name_H-M    "P 1"
_symmetry_int_tables_number       1

loop_
  _symmetry_equiv_pos_as_xyz
  'x, y, z'

loop_
  _atom_site_label
  _atom_site_occupancy
  _atom_site_fract_x
  _atom_site_fract_y
  _atom_site_fract_z
  _atom_site_thermal_displace_type
  _atom_site_B_iso_or_equiv
  _atom_site_type_symbol
  _atom_site_charge
  C1       1.0000 0.62020  0.02830  0.19190  Biso   1.000  C  -0.321710
  C2       1.0000 0.87980  0.97170  0.69190  Biso   1.000  C  -0.321710
  C3       1.0000 0.62020  0.97170  0.30810  Biso   1.000  C  -0.321710
  C4       1.0000 0.87980  0.02830  0.80810  Biso   1.000  C  -0.321710
  C5       1.0000 0.37980  0.97170  0.80810  Biso   1.000  C  -0.321710
  C6       1.0000 0.12020  0.02830  0.30810  Biso   1.000  C  -0.321710
  C7       1.0000 0.37980  0.02830  0.69190  Biso   1.000  C  -0.321710
  C8       1.0000 0.12020  0.97170  0.19190  Biso   1.000  C  -0.321710
  C9       1.0000 0.69350  0.08400  0.17440  Biso   1.000  C  0.175768
  C10      1.0000 0.80650  0.91600  0.67440  Biso   1.000  C  0.175768
  C11      1.0000 0.69350  0.91600  0.32560  Biso   1.000  C  0.175768
  C12      1.0000 0.80650  0.08400  0.82560  Biso   1.000  C  0.175768
  C13      1.0000 0.30650  0.91600  0.82560  Biso   1.000  C  0.175768
  C14      1.0000 0.19350  0.08400  0.32560  Biso   1.000  C  0.175768
  C15      1.0000 0.30650  0.08400  0.67440  Biso   1.000  C  0.175768
  C16      1.0000 0.19350  0.91600  0.17440  Biso   1.000  C  0.175768
  C17      1.0000 0.70000  0.09970  0.13580  Biso   1.000  C  0.063227
  C18      1.0000 0.80000  0.90030  0.63580  Biso   1.000  C  0.063227
  C19      1.0000 0.70000  0.90030  0.36420  Biso   1.000  C  0.063227
  C20      1.0000 0.80000  0.09970  0.86420  Biso   1.000  C  0.063227
  C21      1.0000 0.30000  0.90030  0.86420  Biso   1.000  C  0.063227
  C22      1.0000 0.20000  0.09970  0.36420  Biso   1.000  C  0.063227
  C23      1.0000 0.30000  0.09970  0.63580  Biso   1.000  C  0.063227
  C24      1.0000 0.20000  0.90030  0.13580  Biso   1.000  C  0.063227
  C25      1.0000 0.62690  0.05800  0.11230  Biso   1.000  C  0.069873
  C26      1.0000 0.87310  0.94200  0.61230  Biso   1.000  C  0.069873
  C27      1.0000 0.62690  0.94200  0.38770  Biso   1.000  C  0.069873
  C28      1.0000 0.87310  0.05800  0.88770  Biso   1.000  C  0.069873
  C29      1.0000 0.37310  0.94200  0.88770  Biso   1.000  C  0.069873
  C30      1.0000 0.12690  0.05800  0.38770  Biso   1.000  C  0.069873
  C31      1.0000 0.37310  0.05800  0.61230  Biso   1.000  C  0.069873
  C32      1.0000 0.12690  0.94200  0.11230  Biso   1.000  C  0.069873
  C33      1.0000 0.54880  0.00160  0.12760  Biso   1.000  C  0.062694
  C34      1.0000 0.95120  0.99840  0.62760  Biso   1.000  C  0.062694
  C35      1.0000 0.54880  0.99840  0.37240  Biso   1.000  C  0.062694
  C36      1.0000 0.95120  0.00160  0.87240  Biso   1.000  C  0.062694
  C37      1.0000 0.45120  0.99840  0.87240  Biso   1.000  C  0.062694
  C38      1.0000 0.04880  0.00160  0.37240  Biso   1.000  C  0.062694
  C39      1.0000 0.45120  0.00160  0.62760  Biso   1.000  C  0.062694
  C40      1.0000 0.04880  0.99840  0.12760  Biso   1.000  C  0.062694
  C41      1.0000 0.54900  0.98800  0.16660  Biso   1.000  C  0.173297
  C42      1.0000 0.95100  0.01200  0.66660  Biso   1.000  C  0.173297
  C43      1.0000 0.54900  0.01200  0.33340  Biso   1.000  C  0.173297
  C44      1.0000 0.95100  0.98800  0.83340  Biso   1.000  C  0.173297
  C45      1.0000 0.45100  0.01200  0.83340  Biso   1.000  C  0.173297
  C46      1.0000 0.04900  0.98800  0.33340  Biso   1.000  C  0.173297
  C47      1.0000 0.45100  0.98800  0.66660  Biso   1.000  C  0.173297
  C48      1.0000 0.04900  0.01200  0.16660  Biso   1.000  C  0.173297
  C49      1.0000 0.61910  0.14200  0.26110  Biso   1.000  C  -0.325928
  C50      1.0000 0.88090  0.85800  0.76110  Biso   1.000  C  -0.325928
  C51      1.0000 0.61910  0.85800  0.23890  Biso   1.000  C  -0.325928
  C52      1.0000 0.88090  0.14200  0.73890  Biso   1.000  C  -0.325928
  C53      1.0000 0.38090  0.85800  0.73890  Biso   1.000  C  -0.325928
  C54      1.0000 0.11910  0.14200  0.23890  Biso   1.000  C  -0.325928
  C55      1.0000 0.38090  0.14200  0.76110  Biso   1.000  C  -0.325928
  C56      1.0000 0.11910  0.85800  0.26110  Biso   1.000  C  -0.325928
  C57      1.0000 0.54820  0.20690  0.24410  Biso   1.000  C  0.170657
  C58      1.0000 0.95180  0.79310  0.74410  Biso   1.000  C  0.170657
  C59      1.0000 0.54820  0.79310  0.25590  Biso   1.000  C  0.170657
  C60      1.0000 0.95180  0.20690  0.75590  Biso   1.000  C  0.170657
  C61      1.0000 0.45180  0.79310  0.75590  Biso   1.000  C  0.170657
  C62      1.0000 0.04820  0.20690  0.25590  Biso   1.000  C  0.170657
  C63      1.0000 0.45180  0.20690  0.74410  Biso   1.000  C  0.170657
  C64      1.0000 0.04820  0.79310  0.24410  Biso   1.000  C  0.170657
  C65      1.0000 0.54890  0.30100  0.24930  Biso   1.000  C  0.063034
  C66      1.0000 0.95110  0.69900  0.74930  Biso   1.000  C  0.063034
  C67      1.0000 0.54890  0.69900  0.25070  Biso   1.000  C  0.063034
  C68      1.0000 0.95110  0.30100  0.75070  Biso   1.000  C  0.063034
  C69      1.0000 0.45110  0.69900  0.75070  Biso   1.000  C  0.063034
  C70      1.0000 0.04890  0.30100  0.25070  Biso   1.000  C  0.063034
  C71      1.0000 0.45110  0.30100  0.74930  Biso   1.000  C  0.063034
  C72      1.0000 0.04890  0.69900  0.24930  Biso   1.000  C  0.063034
  C73      1.0000 0.61970  0.33790  0.27590  Biso   1.000  C  0.063987
  C74      1.0000 0.88030  0.66210  0.77590  Biso   1.000  C  0.063987
  C75      1.0000 0.61970  0.66210  0.22410  Biso   1.000  C  0.063987
  C76      1.0000 0.88030  0.33790  0.72410  Biso   1.000  C  0.063987
  C77      1.0000 0.38030  0.66210  0.72410  Biso   1.000  C  0.063987
  C78      1.0000 0.11970  0.33790  0.22410  Biso   1.000  C  0.063987
  C79      1.0000 0.38030  0.33790  0.77590  Biso   1.000  C  0.063987
  C80      1.0000 0.11970  0.66210  0.27590  Biso   1.000  C  0.063987
  C81      1.0000 0.69010  0.28000  0.29230  Biso   1.000  C  0.059307
  C82      1.0000 0.80990  0.72000  0.79230  Biso   1.000  C  0.059307
  C83      1.0000 0.69010  0.72000  0.20770  Biso   1.000  C  0.059307
  C84      1.0000 0.80990  0.28000  0.70770  Biso   1.000  C  0.059307
  C85      1.0000 0.30990  0.72000  0.70770  Biso   1.000  C  0.059307
  C86      1.0000 0.19010  0.28000  0.20770  Biso   1.000  C  0.059307
  C87      1.0000 0.30990  0.28000  0.79230  Biso   1.000  C  0.059307
  C88      1.0000 0.19010  0.72000  0.29230  Biso   1.000  C  0.059307
  C89      1.0000 0.68910  0.18460  0.28510  Biso   1.000  C  0.180407
  C90      1.0000 0.81090  0.81540  0.78510  Biso   1.000  C  0.180407
  C91      1.0000 0.68910  0.81540  0.21490  Biso   1.000  C  0.180407
  C92      1.0000 0.81090  0.18460  0.71490  Biso   1.000  C  0.180407
  C93      1.0000 0.31090  0.81540  0.71490  Biso   1.000  C  0.180407
  C94      1.0000 0.18910  0.18460  0.21490  Biso   1.000  C  0.180407
  C95      1.0000 0.31090  0.18460  0.78510  Biso   1.000  C  0.180407
  C96      1.0000 0.18910  0.81540  0.28510  Biso   1.000  C  0.180407
  F1       1.0000 0.76720  0.12940  0.19573  Biso   1.000  F  -0.134923
  F2       1.0000 0.73280  0.87060  0.69573  Biso   1.000  F  -0.134923
  F3       1.0000 0.76720  0.87060  0.30427  Biso   1.000  F  -0.134923
  F4       1.0000 0.73280  0.12940  0.80427  Biso   1.000  F  -0.134923
  F5       1.0000 0.23280  0.87060  0.80427  Biso   1.000  F  -0.134923
  F6       1.0000 0.26720  0.12940  0.30427  Biso   1.000  F  -0.134923
  F7       1.0000 0.23280  0.12940  0.69573  Biso   1.000  F  -0.134923
  F8       1.0000 0.26720  0.87060  0.19573  Biso   1.000  F  -0.134923
  F9       1.0000 0.77540  0.15430  0.12091  Biso   1.000  F  -0.100946
  F10      1.0000 0.72460  0.84570  0.62091  Biso   1.000  F  -0.100946
  F11      1.0000 0.77540  0.84570  0.37909  Biso   1.000  F  -0.100946
  F12      1.0000 0.72460  0.15430  0.87909  Biso   1.000  F  -0.100946
  F13      1.0000 0.22460  0.84570  0.87909  Biso   1.000  F  -0.100946
  F14      1.0000 0.27540  0.15430  0.37909  Biso   1.000  F  -0.100946
  F15      1.0000 0.22460  0.15430  0.62091  Biso   1.000  F  -0.100946
  F16      1.0000 0.27540  0.84570  0.12091  Biso   1.000  F  -0.100946
  F17      1.0000 0.63100  0.07290  0.07381  Biso   1.000  F  -0.140694
  F18      1.0000 0.86900  0.92710  0.57381  Biso   1.000  F  -0.140694
  F19      1.0000 0.63100  0.92710  0.42619  Biso   1.000  F  -0.140694
  F20      1.0000 0.86900  0.07290  0.92619  Biso   1.000  F  -0.140694
  F21      1.0000 0.36900  0.92710  0.92619  Biso   1.000  F  -0.140694
  F22      1.0000 0.13100  0.07290  0.42619  Biso   1.000  F  -0.140694
  F23      1.0000 0.36900  0.07290  0.57381  Biso   1.000  F  -0.140694
  F24      1.0000 0.13100  0.92710  0.07381  Biso   1.000  F  -0.140694
  F25      1.0000 0.47770  0.96210  0.10456  Biso   1.000  F  -0.096989
  F26      1.0000 0.02230  0.03790  0.60456  Biso   1.000  F  -0.096989
  F27      1.0000 0.47770  0.03790  0.39544  Biso   1.000  F  -0.096989
  F28      1.0000 0.02230  0.96210  0.89544  Biso   1.000  F  -0.096989
  F29      1.0000 0.52230  0.03790  0.89544  Biso   1.000  F  -0.096989
  F30      1.0000 0.97770  0.96210  0.39544  Biso   1.000  F  -0.096989
  F31      1.0000 0.52230  0.96210  0.60456  Biso   1.000  F  -0.096989
  F32      1.0000 0.97770  0.03790  0.10456  Biso   1.000  F  -0.096989
  F33      1.0000 0.47030  0.93010  0.17853  Biso   1.000  F  -0.136645
  F34      1.0000 0.02970  0.06990  0.67853  Biso   1.000  F  -0.136645
  F35      1.0000 0.47030  0.06990  0.32147  Biso   1.000  F  -0.136645
  F36      1.0000 0.02970  0.93010  0.82147  Biso   1.000  F  -0.136645
  F37      1.0000 0.52970  0.06990  0.82147  Biso   1.000  F  -0.136645
  F38      1.0000 0.97030  0.93010  0.32147  Biso   1.000  F  -0.136645
  F39      1.0000 0.52970  0.93010  0.67853  Biso   1.000  F  -0.136645
  F40      1.0000 0.97030  0.06990  0.17853  Biso   1.000  F  -0.136645
  F41      1.0000 0.47400  0.17360  0.21908  Biso   1.000  F  -0.148067
  F42      1.0000 0.02600  0.82640  0.71908  Biso   1.000  F  -0.148067
  F43      1.0000 0.47400  0.82640  0.28092  Biso   1.000  F  -0.148067
  F44      1.0000 0.02600  0.17360  0.78092  Biso   1.000  F  -0.148067
  F45      1.0000 0.52600  0.82640  0.78092  Biso   1.000  F  -0.148067
  F46      1.0000 0.97400  0.17360  0.28092  Biso   1.000  F  -0.148067
  F47      1.0000 0.52600  0.17360  0.71908  Biso   1.000  F  -0.148067
  F48      1.0000 0.97400  0.82640  0.21908  Biso   1.000  F  -0.148067
  F49      1.0000 0.48110  0.35660  0.23150  Biso   1.000  F  -0.099277
  F50      1.0000 0.01890  0.64340  0.73150  Biso   1.000  F  -0.099277
  F51      1.0000 0.48110  0.64340  0.26850  Biso   1.000  F  -0.099277
  F52      1.0000 0.01890  0.35660  0.76850  Biso   1.000  F  -0.099277
  F53      1.0000 0.51890  0.64340  0.76850  Biso   1.000  F  -0.099277
  F54      1.0000 0.98110  0.35660  0.26850  Biso   1.000  F  -0.099277
  F55      1.0000 0.51890  0.35660  0.73150  Biso   1.000  F  -0.099277
  F56      1.0000 0.98110  0.64340  0.23150  Biso   1.000  F  -0.099277
  F57      1.0000 0.61980  0.43170  0.28290  Biso   1.000  F  -0.130346
  F58      1.0000 0.88020  0.56830  0.78290  Biso   1.000  F  -0.130346
  F59      1.0000 0.61980  0.56830  0.21710  Biso   1.000  F  -0.130346
  F60      1.0000 0.88020  0.43170  0.71710  Biso   1.000  F  -0.130346
  F61      1.0000 0.38020  0.56830  0.71710  Biso   1.000  F  -0.130346
  F62      1.0000 0.11980  0.43170  0.21710  Biso   1.000  F  -0.130346
  F63      1.0000 0.38020  0.43170  0.78290  Biso   1.000  F  -0.130346
  F64      1.0000 0.11980  0.56830  0.28290  Biso   1.000  F  -0.130346
  F65      1.0000 0.76120  0.31580  0.31790  Biso   1.000  F  -0.148067
  F66      1.0000 0.73880  0.68420  0.81790  Biso   1.000  F  -0.148067
  F67      1.0000 0.76120  0.68420  0.18210  Biso   1.000  F  -0.148067
  F68      1.0000 0.73880  0.31580  0.68210  Biso   1.000  F  -0.148067
  F69      1.0000 0.23880  0.68420  0.68210  Biso   1.000  F  -0.148067
  F70      1.0000 0.26120  0.31580  0.18210  Biso   1.000  F  -0.148067
  F71      1.0000 0.23880  0.31580  0.81790  Biso   1.000  F  -0.148067
  F72      1.0000 0.26120  0.68420  0.31790  Biso   1.000  F  -0.148067
  F73      1.0000 0.76140  0.13490  0.30446  Biso   1.000  F  -0.107915
  F74      1.0000 0.73860  0.86510  0.80446  Biso   1.000  F  -0.107915
  F75      1.0000 0.76140  0.86510  0.19554  Biso   1.000  F  -0.107915
  F76      1.0000 0.73860  0.13490  0.69554  Biso   1.000  F  -0.107915
  F77      1.0000 0.23860  0.86510  0.69554  Biso   1.000  F  -0.107915
  F78      1.0000 0.26140  0.13490  0.19554  Biso   1.000  F  -0.107915
  F79      1.0000 0.23860  0.13490  0.80446  Biso   1.000  F  -0.107915
  F80      1.0000 0.26140  0.86510  0.30446  Biso   1.000  F  -0.107915
  Pt1      1.0000 0.61797  0.00000  0.25000  Biso   1.000  Pt  0.069411
  Pt2      1.0000 0.88203  0.00000  0.75000  Biso   1.000  Pt  0.069411
  Pt3      1.0000 0.38203  0.00000  0.75000  Biso   1.000  Pt  0.069411
  Pt4      1.0000 0.11797  0.00000  0.25000  Biso   1.000  Pt  0.069411
  Tl1      1.0000 0.87301  0.00000  0.25000  Biso   1.000  Tl  0.549099
  Tl2      1.0000 0.62699  0.00000  0.75000  Biso   1.000  Tl  0.549099
  Tl3      1.0000 0.12699  0.00000  0.75000  Biso   1.000  Tl  0.549099
  Tl4      1.0000 0.37301  0.00000  0.25000  Biso   1.000  Tl  0.549099
