data_image0
_cell_length_a       7.833
_cell_length_b       8.339
_cell_length_c       10.922
_cell_angle_alpha    90.12
_cell_angle_beta     103.17
_cell_angle_gamma    111.73

_symmetry_space_group_name_H-M    "P 1"
_symmetry_int_tables_number       1

loop_
  _symmetry_equiv_pos_as_xyz
  'x, y, z'

loop_
  _atom_site_label
  _atom_site_occupancy
  _atom_site_fract_x
  _atom_site_fract_y
  _atom_site_fract_z
  _atom_site_thermal_displace_type
  _atom_site_B_iso_or_equiv
  _atom_site_type_symbol
  _atom_site_charge
  C1       1.0000 0.46360  0.80320  0.83180  Biso   1.000  C  -0.032714
  C2       1.0000 0.53640  0.19680  0.16820  Biso   1.000  C  -0.032715
  C3       1.0000 0.50090  0.96840  0.79450  Biso   1.000  C  0.290290
  C4       1.0000 0.49910  0.03160  0.20550  Biso   1.000  C  0.290291
  C5       1.0000 0.66090  0.10400  0.86430  Biso   1.000  C  -0.127326
  C6       1.0000 0.33910  0.89600  0.13570  Biso   1.000  C  -0.127326
  C7       1.0000 0.77460  0.06860  0.96860  Biso   1.000  C  -0.062328
  C8       1.0000 0.22540  0.93140  0.03140  Biso   1.000  C  -0.062328
  C9       1.0000 0.72730  0.90000  0.00060  Biso   1.000  C  0.094771
  C10      1.0000 0.27270  0.10000  0.99940  Biso   1.000  C  0.094771
  Cd1      1.0000 0.50000  0.50000  0.00000  Biso   1.000  Cd  1.035642
  Cd2      1.0000 0.50000  1.00000  0.50000  Biso   1.000  Cd  1.151176
  H1       1.0000 0.35800  0.71220  0.78470  Biso   1.000  H  0.108136
  H2       1.0000 0.64200  0.28780  0.21530  Biso   1.000  H  0.108136
  H3       1.0000 0.69070  0.21650  0.84110  Biso   1.000  H  0.120101
  H4       1.0000 0.30930  0.78350  0.15890  Biso   1.000  H  0.120101
  H5       1.0000 0.88170  0.15730  0.01670  Biso   1.000  H  0.116374
  H6       1.0000 0.11830  0.84270  0.98330  Biso   1.000  H  0.116375
  H7       1.0000 0.80420  0.87690  0.07090  Biso   1.000  H  0.098628
  H8       1.0000 0.19580  0.12310  0.92910  Biso   1.000  H  0.098628
  H9       1.0000 0.32750  0.37620  0.73830  Biso   1.000  H  0.479479
  H10      1.0000 0.67250  0.62380  0.26170  Biso   1.000  H  0.479480
  H11      1.0000 0.51640  0.42840  0.74660  Biso   1.000  H  0.460682
  H12      1.0000 0.48360  0.57160  0.25340  Biso   1.000  H  0.460682
  H13      1.0000 0.14730  0.43740  0.02640  Biso   1.000  H  0.465608
  H14      1.0000 0.85270  0.56260  0.97360  Biso   1.000  H  0.465608
  H15      1.0000 0.11760  0.48210  0.90190  Biso   1.000  H  0.476468
  H16      1.0000 0.88240  0.51790  0.09810  Biso   1.000  H  0.476468
  H17      1.0000 0.39030  0.63500  0.45780  Biso   1.000  H  0.467521
  H18      1.0000 0.60970  0.36500  0.54220  Biso   1.000  H  0.467521
  H19      1.0000 0.53230  0.69570  0.57160  Biso   1.000  H  0.468191
  H20      1.0000 0.46770  0.30430  0.42840  Biso   1.000  H  0.468191
  H21      1.0000 0.16140  0.00360  0.33810  Biso   1.000  H  0.486020
  H22      1.0000 0.83860  0.99640  0.66190  Biso   1.000  H  0.486020
  H23      1.0000 0.11210  0.83830  0.37500  Biso   1.000  H  0.482530
  H24      1.0000 0.88790  0.16170  0.62500  Biso   1.000  H  0.482530
  H25      1.0000 0.26600  0.91530  0.66290  Biso   1.000  H  0.349105
  H26      1.0000 0.73400  0.08470  0.33710  Biso   1.000  H  0.349105
  H27      1.0000 0.37480  0.10270  0.69560  Biso   1.000  H  0.323441
  H28      1.0000 0.62520  0.89730  0.30440  Biso   1.000  H  0.323441
  N1       1.0000 0.38450  0.99860  0.68350  Biso   1.000  N  -0.661305
  N2       1.0000 0.61550  0.00140  0.31650  Biso   1.000  N  -0.661305
  N3       1.0000 0.57380  0.76850  0.93340  Biso   1.000  N  -0.217325
  N4       1.0000 0.42620  0.23150  0.06660  Biso   1.000  N  -0.217325
  O1       1.0000 0.43050  0.38290  0.78440  Biso   1.000  O  -0.819531
  O2       1.0000 0.56950  0.61710  0.21560  Biso   1.000  O  -0.819532
  O3       1.0000 0.18390  0.44600  0.95830  Biso   1.000  O  -0.813504
  O4       1.0000 0.81610  0.55400  0.04170  Biso   1.000  O  -0.813504
  O5       1.0000 0.44420  0.71340  0.52090  Biso   1.000  O  -0.815379
  O6       1.0000 0.55580  0.28660  0.47910  Biso   1.000  O  -0.815379
  O7       1.0000 0.19990  0.93790  0.38560  Biso   1.000  O  -0.831344
  O8       1.0000 0.80010  0.06210  0.61440  Biso   1.000  O  -0.831344
