data_image0
_cell_length_a       12.6668
_cell_length_b       14.2938
_cell_length_c       35.0539
_cell_angle_alpha    90
_cell_angle_beta     90
_cell_angle_gamma    90

_symmetry_space_group_name_H-M    "P 1"
_symmetry_int_tables_number       1

loop_
  _symmetry_equiv_pos_as_xyz
  'x, y, z'

loop_
  _atom_site_label
  _atom_site_occupancy
  _atom_site_fract_x
  _atom_site_fract_y
  _atom_site_fract_z
  _atom_site_thermal_displace_type
  _atom_site_B_iso_or_equiv
  _atom_site_type_symbol
  _atom_site_charge
  C1       1.0000 0.62020  0.02830  0.19190  Biso   1.000  C  -0.339623
  C2       1.0000 0.87980  0.97170  0.69190  Biso   1.000  C  -0.339623
  C3       1.0000 0.62020  0.97170  0.30810  Biso   1.000  C  -0.339623
  C4       1.0000 0.87980  0.02830  0.80810  Biso   1.000  C  -0.339623
  C5       1.0000 0.37980  0.97170  0.80810  Biso   1.000  C  -0.339623
  C6       1.0000 0.12020  0.02830  0.30810  Biso   1.000  C  -0.339623
  C7       1.0000 0.37980  0.02830  0.69190  Biso   1.000  C  -0.339623
  C8       1.0000 0.12020  0.97170  0.19190  Biso   1.000  C  -0.339623
  C9       1.0000 0.69350  0.08400  0.17440  Biso   1.000  C  0.176518
  C10      1.0000 0.80650  0.91600  0.67440  Biso   1.000  C  0.176518
  C11      1.0000 0.69350  0.91600  0.32560  Biso   1.000  C  0.176518
  C12      1.0000 0.80650  0.08400  0.82560  Biso   1.000  C  0.176518
  C13      1.0000 0.30650  0.91600  0.82560  Biso   1.000  C  0.176518
  C14      1.0000 0.19350  0.08400  0.32560  Biso   1.000  C  0.176518
  C15      1.0000 0.30650  0.08400  0.67440  Biso   1.000  C  0.176518
  C16      1.0000 0.19350  0.91600  0.17440  Biso   1.000  C  0.176518
  C17      1.0000 0.70000  0.09970  0.13580  Biso   1.000  C  0.066784
  C18      1.0000 0.80000  0.90030  0.63580  Biso   1.000  C  0.066784
  C19      1.0000 0.70000  0.90030  0.36420  Biso   1.000  C  0.066784
  C20      1.0000 0.80000  0.09970  0.86420  Biso   1.000  C  0.066784
  C21      1.0000 0.30000  0.90030  0.86420  Biso   1.000  C  0.066784
  C22      1.0000 0.20000  0.09970  0.36420  Biso   1.000  C  0.066784
  C23      1.0000 0.30000  0.09970  0.63580  Biso   1.000  C  0.066784
  C24      1.0000 0.20000  0.90030  0.13580  Biso   1.000  C  0.066784
  C25      1.0000 0.62690  0.05800  0.11230  Biso   1.000  C  0.065277
  C26      1.0000 0.87310  0.94200  0.61230  Biso   1.000  C  0.065277
  C27      1.0000 0.62690  0.94200  0.38770  Biso   1.000  C  0.065277
  C28      1.0000 0.87310  0.05800  0.88770  Biso   1.000  C  0.065277
  C29      1.0000 0.37310  0.94200  0.88770  Biso   1.000  C  0.065277
  C30      1.0000 0.12690  0.05800  0.38770  Biso   1.000  C  0.065277
  C31      1.0000 0.37310  0.05800  0.61230  Biso   1.000  C  0.065277
  C32      1.0000 0.12690  0.94200  0.11230  Biso   1.000  C  0.065277
  C33      1.0000 0.54880  0.00160  0.12760  Biso   1.000  C  0.063645
  C34      1.0000 0.95120  0.99840  0.62760  Biso   1.000  C  0.063645
  C35      1.0000 0.54880  0.99840  0.37240  Biso   1.000  C  0.063645
  C36      1.0000 0.95120  0.00160  0.87240  Biso   1.000  C  0.063645
  C37      1.0000 0.45120  0.99840  0.87240  Biso   1.000  C  0.063645
  C38      1.0000 0.04880  0.00160  0.37240  Biso   1.000  C  0.063645
  C39      1.0000 0.45120  0.00160  0.62760  Biso   1.000  C  0.063644
  C40      1.0000 0.04880  0.99840  0.12760  Biso   1.000  C  0.063645
  C41      1.0000 0.54900  0.98800  0.16660  Biso   1.000  C  0.170401
  C42      1.0000 0.95100  0.01200  0.66660  Biso   1.000  C  0.170401
  C43      1.0000 0.54900  0.01200  0.33340  Biso   1.000  C  0.170401
  C44      1.0000 0.95100  0.98800  0.83340  Biso   1.000  C  0.170401
  C45      1.0000 0.45100  0.01200  0.83340  Biso   1.000  C  0.170401
  C46      1.0000 0.04900  0.98800  0.33340  Biso   1.000  C  0.170401
  C47      1.0000 0.45100  0.98800  0.66660  Biso   1.000  C  0.170401
  C48      1.0000 0.04900  0.01200  0.16660  Biso   1.000  C  0.170401
  C49      1.0000 0.61910  0.14200  0.26110  Biso   1.000  C  -0.353358
  C50      1.0000 0.88090  0.85800  0.76110  Biso   1.000  C  -0.353358
  C51      1.0000 0.61910  0.85800  0.23890  Biso   1.000  C  -0.353358
  C52      1.0000 0.88090  0.14200  0.73890  Biso   1.000  C  -0.353358
  C53      1.0000 0.38090  0.85800  0.73890  Biso   1.000  C  -0.353358
  C54      1.0000 0.11910  0.14200  0.23890  Biso   1.000  C  -0.353358
  C55      1.0000 0.38090  0.14200  0.76110  Biso   1.000  C  -0.353358
  C56      1.0000 0.11910  0.85800  0.26110  Biso   1.000  C  -0.353358
  C57      1.0000 0.54820  0.20690  0.24410  Biso   1.000  C  0.165774
  C58      1.0000 0.95180  0.79310  0.74410  Biso   1.000  C  0.165774
  C59      1.0000 0.54820  0.79310  0.25590  Biso   1.000  C  0.165774
  C60      1.0000 0.95180  0.20690  0.75590  Biso   1.000  C  0.165774
  C61      1.0000 0.45180  0.79310  0.75590  Biso   1.000  C  0.165774
  C62      1.0000 0.04820  0.20690  0.25590  Biso   1.000  C  0.165774
  C63      1.0000 0.45180  0.20690  0.74410  Biso   1.000  C  0.165774
  C64      1.0000 0.04820  0.79310  0.24410  Biso   1.000  C  0.165774
  C65      1.0000 0.54890  0.30100  0.24930  Biso   1.000  C  0.066465
  C66      1.0000 0.95110  0.69900  0.74930  Biso   1.000  C  0.066465
  C67      1.0000 0.54890  0.69900  0.25070  Biso   1.000  C  0.066465
  C68      1.0000 0.95110  0.30100  0.75070  Biso   1.000  C  0.066465
  C69      1.0000 0.45110  0.69900  0.75070  Biso   1.000  C  0.066465
  C70      1.0000 0.04890  0.30100  0.25070  Biso   1.000  C  0.066465
  C71      1.0000 0.45110  0.30100  0.74930  Biso   1.000  C  0.066465
  C72      1.0000 0.04890  0.69900  0.24930  Biso   1.000  C  0.066465
  C73      1.0000 0.61970  0.33790  0.27590  Biso   1.000  C  0.082790
  C74      1.0000 0.88030  0.66210  0.77590  Biso   1.000  C  0.082790
  C75      1.0000 0.61970  0.66210  0.22410  Biso   1.000  C  0.082790
  C76      1.0000 0.88030  0.33790  0.72410  Biso   1.000  C  0.082790
  C77      1.0000 0.38030  0.66210  0.72410  Biso   1.000  C  0.082790
  C78      1.0000 0.11970  0.33790  0.22410  Biso   1.000  C  0.082790
  C79      1.0000 0.38030  0.33790  0.77590  Biso   1.000  C  0.082790
  C80      1.0000 0.11970  0.66210  0.27590  Biso   1.000  C  0.082790
  C81      1.0000 0.69010  0.28000  0.29230  Biso   1.000  C  0.064254
  C82      1.0000 0.80990  0.72000  0.79230  Biso   1.000  C  0.064254
  C83      1.0000 0.69010  0.72000  0.20770  Biso   1.000  C  0.064254
  C84      1.0000 0.80990  0.28000  0.70770  Biso   1.000  C  0.064254
  C85      1.0000 0.30990  0.72000  0.70770  Biso   1.000  C  0.064254
  C86      1.0000 0.19010  0.28000  0.20770  Biso   1.000  C  0.064254
  C87      1.0000 0.30990  0.28000  0.79230  Biso   1.000  C  0.064254
  C88      1.0000 0.19010  0.72000  0.29230  Biso   1.000  C  0.064254
  C89      1.0000 0.68910  0.18460  0.28510  Biso   1.000  C  0.177973
  C90      1.0000 0.81090  0.81540  0.78510  Biso   1.000  C  0.177973
  C91      1.0000 0.68910  0.81540  0.21490  Biso   1.000  C  0.177973
  C92      1.0000 0.81090  0.18460  0.71490  Biso   1.000  C  0.177973
  C93      1.0000 0.31090  0.81540  0.71490  Biso   1.000  C  0.177973
  C94      1.0000 0.18910  0.18460  0.21490  Biso   1.000  C  0.177973
  C95      1.0000 0.31090  0.18460  0.78510  Biso   1.000  C  0.177973
  C96      1.0000 0.18910  0.81540  0.28510  Biso   1.000  C  0.177973
  F1       1.0000 0.76720  0.12940  0.19573  Biso   1.000  F  -0.137586
  F2       1.0000 0.73280  0.87060  0.69573  Biso   1.000  F  -0.137586
  F3       1.0000 0.76720  0.87060  0.30427  Biso   1.000  F  -0.137586
  F4       1.0000 0.73280  0.12940  0.80427  Biso   1.000  F  -0.137586
  F5       1.0000 0.23280  0.87060  0.80427  Biso   1.000  F  -0.137586
  F6       1.0000 0.26720  0.12940  0.30427  Biso   1.000  F  -0.137586
  F7       1.0000 0.23280  0.12940  0.69573  Biso   1.000  F  -0.137586
  F8       1.0000 0.26720  0.87060  0.19573  Biso   1.000  F  -0.137586
  F9       1.0000 0.77540  0.15430  0.12091  Biso   1.000  F  -0.112502
  F10      1.0000 0.72460  0.84570  0.62091  Biso   1.000  F  -0.112502
  F11      1.0000 0.77540  0.84570  0.37909  Biso   1.000  F  -0.112502
  F12      1.0000 0.72460  0.15430  0.87909  Biso   1.000  F  -0.112502
  F13      1.0000 0.22460  0.84570  0.87909  Biso   1.000  F  -0.112502
  F14      1.0000 0.27540  0.15430  0.37909  Biso   1.000  F  -0.112502
  F15      1.0000 0.22460  0.15430  0.62091  Biso   1.000  F  -0.112502
  F16      1.0000 0.27540  0.84570  0.12091  Biso   1.000  F  -0.112502
  F17      1.0000 0.63100  0.07290  0.07381  Biso   1.000  F  -0.132058
  F18      1.0000 0.86900  0.92710  0.57381  Biso   1.000  F  -0.132058
  F19      1.0000 0.63100  0.92710  0.42619  Biso   1.000  F  -0.132060
  F20      1.0000 0.86900  0.07290  0.92619  Biso   1.000  F  -0.132060
  F21      1.0000 0.36900  0.92710  0.92619  Biso   1.000  F  -0.132059
  F22      1.0000 0.13100  0.07290  0.42619  Biso   1.000  F  -0.132059
  F23      1.0000 0.36900  0.07290  0.57381  Biso   1.000  F  -0.132061
  F24      1.0000 0.13100  0.92710  0.07381  Biso   1.000  F  -0.132061
  F25      1.0000 0.47770  0.96210  0.10456  Biso   1.000  F  -0.105999
  F26      1.0000 0.02230  0.03790  0.60456  Biso   1.000  F  -0.105999
  F27      1.0000 0.47770  0.03790  0.39544  Biso   1.000  F  -0.105999
  F28      1.0000 0.02230  0.96210  0.89544  Biso   1.000  F  -0.105999
  F29      1.0000 0.52230  0.03790  0.89544  Biso   1.000  F  -0.105999
  F30      1.0000 0.97770  0.96210  0.39544  Biso   1.000  F  -0.105999
  F31      1.0000 0.52230  0.96210  0.60456  Biso   1.000  F  -0.105999
  F32      1.0000 0.97770  0.03790  0.10456  Biso   1.000  F  -0.105999
  F33      1.0000 0.47030  0.93010  0.17853  Biso   1.000  F  -0.136277
  F34      1.0000 0.02970  0.06990  0.67853  Biso   1.000  F  -0.136277
  F35      1.0000 0.47030  0.06990  0.32147  Biso   1.000  F  -0.136277
  F36      1.0000 0.02970  0.93010  0.82147  Biso   1.000  F  -0.136277
  F37      1.0000 0.52970  0.06990  0.82147  Biso   1.000  F  -0.136277
  F38      1.0000 0.97030  0.93010  0.32147  Biso   1.000  F  -0.136277
  F39      1.0000 0.52970  0.93010  0.67853  Biso   1.000  F  -0.136277
  F40      1.0000 0.97030  0.06990  0.17853  Biso   1.000  F  -0.136277
  F41      1.0000 0.47400  0.17360  0.21908  Biso   1.000  F  -0.142559
  F42      1.0000 0.02600  0.82640  0.71908  Biso   1.000  F  -0.142559
  F43      1.0000 0.47400  0.82640  0.28092  Biso   1.000  F  -0.142559
  F44      1.0000 0.02600  0.17360  0.78092  Biso   1.000  F  -0.142559
  F45      1.0000 0.52600  0.82640  0.78092  Biso   1.000  F  -0.142559
  F46      1.0000 0.97400  0.17360  0.28092  Biso   1.000  F  -0.142559
  F47      1.0000 0.52600  0.17360  0.71908  Biso   1.000  F  -0.142559
  F48      1.0000 0.97400  0.82640  0.21908  Biso   1.000  F  -0.142559
  F49      1.0000 0.48110  0.35660  0.23150  Biso   1.000  F  -0.096406
  F50      1.0000 0.01890  0.64340  0.73150  Biso   1.000  F  -0.096406
  F51      1.0000 0.48110  0.64340  0.26850  Biso   1.000  F  -0.096406
  F52      1.0000 0.01890  0.35660  0.76850  Biso   1.000  F  -0.096406
  F53      1.0000 0.51890  0.64340  0.76850  Biso   1.000  F  -0.096406
  F54      1.0000 0.98110  0.35660  0.26850  Biso   1.000  F  -0.096406
  F55      1.0000 0.51890  0.35660  0.73150  Biso   1.000  F  -0.096406
  F56      1.0000 0.98110  0.64340  0.23150  Biso   1.000  F  -0.096406
  F57      1.0000 0.61980  0.43170  0.28290  Biso   1.000  F  -0.120363
  F58      1.0000 0.88020  0.56830  0.78290  Biso   1.000  F  -0.120363
  F59      1.0000 0.61980  0.56830  0.21710  Biso   1.000  F  -0.120363
  F60      1.0000 0.88020  0.43170  0.71710  Biso   1.000  F  -0.120363
  F61      1.0000 0.38020  0.56830  0.71710  Biso   1.000  F  -0.120363
  F62      1.0000 0.11980  0.43170  0.21710  Biso   1.000  F  -0.120363
  F63      1.0000 0.38020  0.43170  0.78290  Biso   1.000  F  -0.120363
  F64      1.0000 0.11980  0.56830  0.28290  Biso   1.000  F  -0.120363
  F65      1.0000 0.76120  0.31580  0.31790  Biso   1.000  F  -0.135991
  F66      1.0000 0.73880  0.68420  0.81790  Biso   1.000  F  -0.135991
  F67      1.0000 0.76120  0.68420  0.18210  Biso   1.000  F  -0.135991
  F68      1.0000 0.73880  0.31580  0.68210  Biso   1.000  F  -0.135991
  F69      1.0000 0.23880  0.68420  0.68210  Biso   1.000  F  -0.135991
  F70      1.0000 0.26120  0.31580  0.18210  Biso   1.000  F  -0.135991
  F71      1.0000 0.23880  0.31580  0.81790  Biso   1.000  F  -0.135991
  F72      1.0000 0.26120  0.68420  0.31790  Biso   1.000  F  -0.135991
  F73      1.0000 0.76140  0.13490  0.30446  Biso   1.000  F  -0.129137
  F74      1.0000 0.73860  0.86510  0.80446  Biso   1.000  F  -0.129137
  F75      1.0000 0.76140  0.86510  0.19554  Biso   1.000  F  -0.129137
  F76      1.0000 0.73860  0.13490  0.69554  Biso   1.000  F  -0.129137
  F77      1.0000 0.23860  0.86510  0.69554  Biso   1.000  F  -0.129137
  F78      1.0000 0.26140  0.13490  0.19554  Biso   1.000  F  -0.129137
  F79      1.0000 0.23860  0.13490  0.80446  Biso   1.000  F  -0.129137
  F80      1.0000 0.26140  0.86510  0.30446  Biso   1.000  F  -0.129137
  Pt1      1.0000 0.61797  0.00000  0.25000  Biso   1.000  Pt  0.089538
  Pt2      1.0000 0.88203  0.00000  0.75000  Biso   1.000  Pt  0.089538
  Pt3      1.0000 0.38203  0.00000  0.75000  Biso   1.000  Pt  0.089538
  Pt4      1.0000 0.11797  0.00000  0.25000  Biso   1.000  Pt  0.089538
  Tl1      1.0000 0.87301  0.00000  0.25000  Biso   1.000  Tl  0.594427
  Tl2      1.0000 0.62699  0.00000  0.75000  Biso   1.000  Tl  0.594427
  Tl3      1.0000 0.12699  0.00000  0.75000  Biso   1.000  Tl  0.594427
  Tl4      1.0000 0.37301  0.00000  0.25000  Biso   1.000  Tl  0.594427
