
##########################################################################
#               Crystallographic Information Format file
#               Produced by PyCifRW module
#
#  This is a CIF file.  CIF has been adopted by the International
#  Union of Crystallography as the standard for data archiving and
#  transmission.
#
#  For information on this file format, follow the CIF links at
#  http://www.iucr.org
##########################################################################

data_image0

_cell_length_a                          12.7424
_cell_length_b                          12.7678
_cell_length_c                          13.2813
_cell_angle_alpha                       90
_cell_angle_beta                        90
_cell_angle_gamma                       90
_symmetry_space_group_name_H-M          'P 1'
_symmetry_int_tables_number             1
loop_
  _symmetry_equiv_pos_as_xyz
         'x, y, z' 
loop_
  _atom_site_label
  _atom_site_occupancy
  _atom_site_fract_x
  _atom_site_fract_y
  _atom_site_fract_z
  _atom_site_thermal_displace_type
  _atom_site_B_iso_or_equiv
  _atom_site_type_symbol
  _atom_site_charge
         C1        1.0000    0.88100   0.75400   0.99000   Biso      1.000     C          0.002314  
         C2        1.0000    0.97400   0.46500   0.82200   Biso      1.000     C          0.600266  
         C3        1.0000    0.00800   0.25200   0.65700   Biso      1.000     C          0.595755  
         C4        1.0000    0.99800   0.76400   0.98900   Biso      1.000     C          0.598766  
         C5        1.0000    0.78600   0.76400   0.16400   Biso      1.000     C          0.600261  
         C6        1.0000    0.30000   0.25000   0.44700   Biso      1.000     C          -0.007775           
         C7        1.0000    0.80000   0.75000   0.05300   Biso      1.000     C          -0.007742           
         C8        1.0000    0.99600   0.13600   0.14900   Biso      1.000     C          0.007801  
         C9        1.0000    0.00900   0.05300   0.21300   Biso      1.000     C          -0.032764           
         C10       1.0000    0.02600   0.03500   0.32200   Biso      1.000     C          0.600256  
         C11       1.0000    0.99200   0.24800   0.15700   Biso      1.000     C          0.595766  
         C12       1.0000    0.00200   0.73600   0.48900   Biso      1.000     C          0.598783  
         C13       1.0000    0.21400   0.73600   0.66400   Biso      1.000     C          0.600261  
         C14       1.0000    0.11900   0.74600   0.49000   Biso      1.000     C          0.002301  
         C15       1.0000    0.20000   0.75000   0.55300   Biso      1.000     C          -0.007743           
         C16       1.0000    0.49600   0.86400   0.35100   Biso      1.000     C          0.007813  
         C17       1.0000    0.50900   0.94700   0.28700   Biso      1.000     C          -0.032757           
         C18       1.0000    0.52600   0.96500   0.17800   Biso      1.000     C          0.600272  
         C19       1.0000    0.49200   0.75200   0.34300   Biso      1.000     C          0.595764  
         C20       1.0000    0.50200   0.26400   0.01100   Biso      1.000     C          0.598786  
         C21       1.0000    0.71400   0.26400   0.83600   Biso      1.000     C          0.600238  
         C22       1.0000    0.61900   0.25400   0.01000   Biso      1.000     C          0.002299  
         C23       1.0000    0.70000   0.25000   0.94700   Biso      1.000     C          -0.007741           
         C24       1.0000    0.38100   0.24600   0.51000   Biso      1.000     C          0.002352  
         C25       1.0000    0.28600   0.23600   0.33600   Biso      1.000     C          0.600253  
         C26       1.0000    0.49800   0.23600   0.51100   Biso      1.000     C          0.598742  
         C27       1.0000    0.50800   0.74800   0.84300   Biso      1.000     C          0.595762  
         C28       1.0000    0.47400   0.53500   0.67800   Biso      1.000     C          0.600268  
         C29       1.0000    0.49100   0.55300   0.78700   Biso      1.000     C          -0.032767           
         C30       1.0000    0.50400   0.63600   0.85100   Biso      1.000     C          0.00781   
         C31       1.0000    0.99100   0.44700   0.71300   Biso      1.000     C          -0.032764           
         C32       1.0000    0.00400   0.36400   0.64900   Biso      1.000     C          0.007813  
         Eu1       1.0000    0.54259   0.21075   0.25423   Biso      1.000     Eu          1.306218  
         Eu2       1.0000    0.46030   0.79190   0.59479   Biso      1.000     Eu          1.295616  
         Eu3       1.0000    0.45741   0.28925   0.75423   Biso      1.000     Eu          1.306228  
         Eu4       1.0000    0.96030   0.20810   0.90521   Biso      1.000     Eu          1.29563   
         Eu5       1.0000    0.95741   0.71075   0.74577   Biso      1.000     Eu          1.306225  
         Eu6       1.0000    0.03970   0.29190   0.40521   Biso      1.000     Eu          1.295612  
         Eu7       1.0000    0.04259   0.78925   0.24577   Biso      1.000     Eu          1.306221  
         Eu8       1.0000    0.53970   0.70810   0.09479   Biso      1.000     Eu          1.295645  
         N1        1.0000    0.83700   0.74100   0.89300   Biso      1.000     N          -0.259154           
         N2        1.0000    0.99200   0.53800   0.65500   Biso      1.000     N          -0.206317           
         N3        1.0000    0.00600   0.51400   0.56100   Biso      1.000     N          -0.010132           
         N4        1.0000    0.00900   0.40900   0.55900   Biso      1.000     N          -0.257205           
         N5        1.0000    0.20700   0.26900   0.49700   Biso      1.000     N          -0.266595           
         N6        1.0000    0.49200   0.46200   0.84500   Biso      1.000     N          -0.206301           
         N7        1.0000    0.33700   0.25900   0.60700   Biso      1.000     N          -0.259163           
         N8        1.0000    0.73500   0.72800   0.90200   Biso      1.000     N          0.001688  
         N9        1.0000    0.50600   0.48600   0.93900   Biso      1.000     N          -0.010147           
         N10       1.0000    0.50900   0.59100   0.94100   Biso      1.000     N          -0.257199           
         N11       1.0000    0.23500   0.27200   0.59800   Biso      1.000     N          0.001676  
         N12       1.0000    0.70700   0.73100   0.00300   Biso      1.000     N          -0.2666   
         N13       1.0000    0.26500   0.77200   0.40200   Biso      1.000     N          0.001636  
         N14       1.0000    0.99400   0.98600   0.06100   Biso      1.000     N          -0.010181           
         N15       1.0000    0.99100   0.09100   0.05900   Biso      1.000     N          -0.257195           
         N16       1.0000    0.79300   0.23100   0.99700   Biso      1.000     N          -0.266596           
         N17       1.0000    0.76500   0.22800   0.09800   Biso      1.000     N          0.001636  
         N18       1.0000    0.50800   0.03800   0.34500   Biso      1.000     N          -0.206307           
         N19       1.0000    0.49400   0.01400   0.43900   Biso      1.000     N          -0.010142           
         N20       1.0000    0.66300   0.24100   0.10700   Biso      1.000     N          -0.259094           
         N21       1.0000    0.29300   0.76900   0.50300   Biso      1.000     N          -0.266593           
         N22       1.0000    0.16300   0.75900   0.39300   Biso      1.000     N          -0.259103           
         N23       1.0000    0.00800   0.96200   0.15500   Biso      1.000     N          -0.206266           
         N24       1.0000    0.49100   0.90900   0.44100   Biso      1.000     N          -0.257201           
         O1        1.0000    0.97300   0.38600   0.87900   Biso      1.000     O          -0.491515           
         O2        1.0000    0.86300   0.79000   0.21500   Biso      1.000     O          -0.490192           
         O3        1.0000    0.04100   0.76700   0.90500   Biso      1.000     O          -0.482586           
         O4        1.0000    0.04700   0.75500   0.07200   Biso      1.000     O          -0.544672           
         O5        1.0000    0.96800   0.55700   0.85300   Biso      1.000     O          -0.489649           
         O6        1.0000    0.00800   0.20400   0.56900   Biso      1.000     O          -0.44865  
         O7        1.0000    0.54700   0.24500   0.42800   Biso      1.000     O          -0.544656           
         O8        1.0000    0.19600   0.25700   0.30000   Biso      1.000     O          -0.493151           
         O9        1.0000    0.36300   0.21000   0.28500   Biso      1.000     O          -0.490168           
         O10       1.0000    0.54100   0.23300   0.59500   Biso      1.000     O          -0.482569           
         O11       1.0000    0.69600   0.74300   0.20000   Biso      1.000     O          -0.493139           
         O12       1.0000    0.46800   0.44300   0.64700   Biso      1.000     O          -0.489649           
         O13       1.0000    0.47300   0.61400   0.62100   Biso      1.000     O          -0.491515           
         O14       1.0000    0.01400   0.20600   0.73800   Biso      1.000     O          -0.528385           
         O15       1.0000    0.98600   0.29400   0.23800   Biso      1.000     O          -0.528391           
         O16       1.0000    0.95900   0.73300   0.40500   Biso      1.000     O          -0.482589           
         O17       1.0000    0.02700   0.11400   0.37900   Biso      1.000     O          -0.491486           
         O18       1.0000    0.03200   0.94300   0.35300   Biso      1.000     O          -0.489647           
         O19       1.0000    0.95300   0.74500   0.57200   Biso      1.000     O          -0.544688           
         O20       1.0000    0.13700   0.71000   0.71500   Biso      1.000     O          -0.490197           
         O21       1.0000    0.30400   0.75700   0.70000   Biso      1.000     O          -0.493137           
         O22       1.0000    0.48600   0.70600   0.26200   Biso      1.000     O          -0.52839  
         O23       1.0000    0.49200   0.70400   0.43100   Biso      1.000     O          -0.448677           
         O24       1.0000    0.52700   0.88600   0.12100   Biso      1.000     O          -0.49153  
         O25       1.0000    0.53200   0.05700   0.14700   Biso      1.000     O          -0.489651           
         O26       1.0000    0.45300   0.25500   0.92800   Biso      1.000     O          -0.544699           
         O27       1.0000    0.45900   0.26700   0.09500   Biso      1.000     O          -0.482603           
         O28       1.0000    0.63700   0.29000   0.78500   Biso      1.000     O          -0.490164           
         O29       1.0000    0.80400   0.24300   0.80000   Biso      1.000     O          -0.493127           
         O30       1.0000    0.50800   0.79600   0.93100   Biso      1.000     O          -0.448663           
         O31       1.0000    0.99200   0.29600   0.06900   Biso      1.000     O          -0.448666           
         O32       1.0000    0.51400   0.79400   0.76200   Biso      1.000     O          -0.52839 