data_3
_audit_creation_date              2022-09-11
_audit_creation_method            'Materials Studio'
_symmetry_space_group_name_H-M    'P1'
_symmetry_Int_Tables_number       1
_symmetry_cell_setting            triclinic
loop_
_symmetry_equiv_pos_as_xyz
  x,y,z
_cell_length_a                    39.6279
_cell_length_b                    39.6304
_cell_length_c                    16.6613
_cell_angle_alpha                 90.0408
_cell_angle_beta                  89.9683
_cell_angle_gamma                 119.9993
loop_
_atom_site_label
_atom_site_type_symbol
_atom_site_fract_x
_atom_site_fract_y
_atom_site_fract_z
_atom_site_charge
C1	C	0.245	0.87588	0.68715	-0.057795
C2	C	0.21652	0.86693	0.74614	-0.0848
C3	C	0.21686	0.89646	0.79174	-0.133865
C4	C	0.24563	0.93558	0.77945	0.087712
C5	C	0.27363	0.94432	0.71916	-0.138968
C6	C	0.27339	0.91481	0.67354	-0.076189
C7	C	0.24991	0.93773	0.95665	-0.13425
C8	C	0.24634	0.96669	0.91255	0.031484
C9	C	0.24611	0.96714	0.82747	0.021653
C10	C	0.62323	0.11849	0.68714	-0.054792
C11	C	0.63205	0.09885	0.74604	-0.084987
C12	C	0.60243	0.06962	0.79142	-0.136495
C13	C	0.56333	0.05937	0.77914	0.090578
C14	C	0.55473	0.07872	0.71883	-0.137536
C15	C	0.58431	0.10797	0.67337	-0.080215
C16	C	0.56161	0.06106	0.95684	-0.134364
C17	C	0.53222	0.02898	0.91232	0.034566
C18	C	0.5316	0.02846	0.82716	0.021355
C19	C	0.38582	0.25839	0.67767	-0.058567
C20	C	0.40359	0.28571	0.73946	-0.081342
C21	C	0.4311	0.28422	0.78885	-0.13928
C22	C	0.44159	0.25549	0.77745	0.087679
C23	C	0.42382	0.22845	0.71477	-0.137576
C24	C	0.39614	0.22972	0.66568	-0.076418
C25	C	0.4395	0.25242	0.95685	-0.131857
C26	C	0.47118	0.25425	0.91214	0.031659
C27	C	0.47176	0.2541	0.82696	0.023224
C28	C	0.25976	0.62318	0.6778	-0.056829
C29	C	0.28771	0.63327	0.73844	-0.082109
C30	C	0.28715	0.60469	0.78772	-0.136516
C31	C	0.25869	0.56527	0.77747	0.087646
C32	C	0.23101	0.55546	0.71594	-0.137502
C33	C	0.23138	0.584	0.66691	-0.078686
C34	C	0.25689	0.56489	0.95704	-0.134283
C35	C	0.2587	0.53504	0.91229	0.032885
C36	C	0.2581	0.53409	0.82709	0.022416
C37	C	0.87592	0.38558	0.67744	-0.056033
C38	C	0.86571	0.4031	0.73864	-0.0859
C39	C	0.89425	0.43092	0.78836	-0.134189
C40	C	0.93366	0.44199	0.77782	0.086647
C41	C	0.94359	0.42438	0.71591	-0.137048
C42	C	0.91509	0.39638	0.6665	-0.078197
C43	C	0.93465	0.44035	0.95709	-0.133714
C44	C	0.96411	0.47232	0.91247	0.032814
C45	C	0.96477	0.47272	0.82732	0.022556
C46	C	0.11888	0.24482	0.6867	-0.054312
C47	C	0.09932	0.21596	0.74495	-0.084977
C48	C	0.06988	0.21578	0.7906	-0.13694
C49	C	0.05929	0.24444	0.77918	0.089052
C50	C	0.07859	0.27283	0.71962	-0.1394
C51	C	0.1081	0.27309	0.67391	-0.078029
C52	C	0.06079	0.24754	0.95662	-0.133392
C53	C	0.02835	0.24411	0.91238	0.028733
C54	C	0.02795	0.2444	0.82726	0.022632
C55	C	0.87648	0.23951	0.32011	-0.05316
C56	C	0.86667	0.21182	0.25898	-0.084974
C57	C	0.89545	0.21282	0.20956	-0.135839
C58	C	0.93477	0.24146	0.22019	0.08835
C59	C	0.94431	0.26886	0.28225	-0.137759
C60	C	0.91557	0.26806	0.33141	-0.080723
C61	C	0.93526	0.24384	0.04071	-0.135307
C62	C	0.96524	0.24218	0.08518	0.032613
C63	C	0.96614	0.24253	0.17038	0.022938
C64	C	0.11363	0.62284	0.31949	-0.057395
C65	C	0.09593	0.6329	0.25848	-0.084453
C66	C	0.06813	0.60431	0.20886	-0.135502
C67	C	0.05724	0.56494	0.21925	0.087767
C68	C	0.07502	0.55513	0.28093	-0.136933
C69	C	0.10301	0.5837	0.33028	-0.079547
C70	C	0.0587	0.56409	0.03997	-0.135081
C71	C	0.02677	0.53459	0.08464	0.032045
C72	C	0.02651	0.5338	0.16979	0.022366
C73	C	0.25596	0.38108	0.30996	-0.052087
C74	C	0.28503	0.40065	0.25208	-0.087785
C75	C	0.28549	0.43024	0.20655	-0.133965
C76	C	0.2569	0.44095	0.21768	0.089813
C77	C	0.2283	0.42163	0.27689	-0.136881
C78	C	0.22777	0.39199	0.32252	-0.082769
C79	C	0.25437	0.43984	0.04013	-0.13465
C80	C	0.2575	0.47212	0.08463	0.032276
C81	C	0.25707	0.47237	0.16975	0.020294
C82	C	0.62343	0.25344	0.30914	-0.05474
C83	C	0.63247	0.28201	0.25039	-0.082595
C84	C	0.60298	0.28181	0.20496	-0.136491
C85	C	0.56384	0.25308	0.21714	0.086463
C86	C	0.55502	0.22496	0.27713	-0.136988
C87	C	0.58448	0.22506	0.32261	-0.080326
C88	C	0.56165	0.24918	0.03988	-0.133533
C89	C	0.53272	0.2527	0.08433	0.031527
C90	C	0.5323	0.25277	0.16942	0.023122
C91	C	0.38044	0.87589	0.31012	-0.05523
C92	C	0.40004	0.867	0.25119	-0.085715
C93	C	0.42926	0.89656	0.20568	-0.135482
C94	C	0.43954	0.93568	0.21789	0.086697
C95	C	0.42023	0.94435	0.27822	-0.139112
C96	C	0.39097	0.91482	0.32379	-0.07963
C97	C	0.43784	0.93738	0.04021	-0.134064
C98	C	0.46996	0.96674	0.08472	0.0318
C99	C	0.4705	0.96735	0.16987	0.023588
C100	C	0.24089	0.11338	0.32009	-0.05561
C101	C	0.21343	0.09539	0.25864	-0.084531
C102	C	0.21494	0.06787	0.20926	-0.135034
C103	C	0.24384	0.05759	0.2203	0.089753
C104	C	0.271	0.07555	0.28266	-0.138495
C105	C	0.26971	0.10323	0.33177	-0.078512
C106	C	0.24686	0.05986	0.04099	-0.134994
C107	C	0.24506	0.02814	0.08538	0.03475
C108	C	0.24528	0.02748	0.17055	0.0204
C109	C	0.25998	0.62403	0.31879	-0.05118
C110	C	0.28785	0.63413	0.25794	-0.077682
C111	C	0.28721	0.60552	0.20844	-0.13844
C112	C	0.25878	0.56611	0.2188	0.08528
C113	C	0.23113	0.55632	0.28045	-0.141717
C114	C	0.23156	0.58486	0.32961	-0.082939
C115	C	0.25693	0.56507	0.03903	-0.131702
C116	C	0.25874	0.53539	0.08435	0.030286
C117	C	0.25816	0.53478	0.16955	0.027178
C118	C	0.8752	0.38482	0.31828	-0.051152
C119	C	0.86514	0.40263	0.25751	-0.07555
C120	C	0.89379	0.4305	0.20801	-0.140012
C121	C	0.93316	0.44134	0.21841	0.084262
C122	C	0.94292	0.42347	0.27998	-0.13969
C123	C	0.91433	0.39543	0.32911	-0.086402
C124	C	0.93453	0.44023	0.03903	-0.132908
C125	C	0.96395	0.47201	0.08416	0.033556
C126	C	0.96446	0.47208	0.16931	0.026743
C127	C	0.11984	0.24437	0.30873	-0.049046
C128	C	0.10078	0.21596	0.24939	-0.079374
C129	C	0.07136	0.21581	0.20371	-0.138223
C130	C	0.06031	0.24407	0.2162	0.086615
C131	C	0.07927	0.27213	0.27658	-0.143184
C132	C	0.10871	0.27233	0.32232	-0.081386
C133	C	0.06099	0.24745	0.0385	-0.129187
C134	C	0.02875	0.24391	0.08381	0.029273
C135	C	0.02875	0.244	0.16894	0.02503
C136	C	0.24509	0.8747	0.3086	-0.047916
C137	C	0.217	0.86581	0.24884	-0.081322
C138	C	0.21753	0.8954	0.20315	-0.136986
C139	C	0.24616	0.93453	0.21607	0.083306
C140	C	0.27395	0.94317	0.27676	-0.139444
C141	C	0.27347	0.91362	0.32252	-0.084856
C142	C	0.25004	0.93753	0.03853	-0.131538
C143	C	0.2466	0.96627	0.08388	0.034186
C144	C	0.24661	0.96631	0.16899	0.025147
C145	C	0.62426	0.11895	0.30922	-0.051405
C146	C	0.63305	0.09964	0.24944	-0.082705
C147	C	0.60339	0.07057	0.20378	-0.135423
C148	C	0.56428	0.06018	0.21664	0.082479
C149	C	0.55575	0.07936	0.27753	-0.140384
C150	C	0.58535	0.10842	0.32329	-0.082601
C151	C	0.56181	0.06122	0.03875	-0.133546
C152	C	0.53262	0.02931	0.084	0.033066
C153	C	0.53239	0.02913	0.16916	0.026418
C154	C	0.38513	0.25848	0.31843	-0.047379
C155	C	0.40278	0.28573	0.25653	-0.080935
C156	C	0.43028	0.28425	0.20699	-0.136858
C157	C	0.44091	0.25562	0.21846	0.085502
C158	C	0.42319	0.22862	0.28117	-0.140327
C159	C	0.39551	0.22985	0.33032	-0.087834
C160	C	0.43937	0.25248	0.03883	-0.132834
C161	C	0.4709	0.25434	0.08409	0.03295
C162	C	0.4712	0.25424	0.16928	0.02451
C163	C	0.62429	0.25398	0.68763	-0.051267
C164	C	0.6333	0.28215	0.74734	-0.08277
C165	C	0.60379	0.28175	0.7932	-0.13549
C166	C	0.56463	0.25318	0.78048	0.084746
C167	C	0.55586	0.22536	0.71974	-0.140428
C168	C	0.58533	0.22569	0.67383	-0.081993
C169	C	0.56182	0.2492	0.958	-0.130638
C170	C	0.53306	0.25272	0.91299	0.032193
C171	C	0.53294	0.25279	0.82789	0.022066
C172	C	0.37966	0.87509	0.68783	-0.048573
C173	C	0.39896	0.86619	0.74734	-0.077529
C174	C	0.4281	0.89576	0.79301	-0.140325
C175	C	0.43858	0.9349	0.78039	0.087657
C176	C	0.41942	0.94355	0.71974	-0.139744
C177	C	0.39028	0.91402	0.67397	-0.087886
C178	C	0.43764	0.93722	0.9583	-0.131156
C179	C	0.46955	0.96641	0.91304	0.033472
C180	C	0.4697	0.96669	0.82788	0.02488
C181	C	0.24055	0.11445	0.67952	-0.051246
C182	C	0.21331	0.09682	0.74148	-0.076698
C183	C	0.2148	0.06931	0.79095	-0.139413
C184	C	0.24341	0.05866	0.77933	0.084068
C185	C	0.27042	0.0764	0.71661	-0.139233
C186	C	0.26918	0.10407	0.66755	-0.083159
C187	C	0.24673	0.06005	0.95902	-0.132506
C188	C	0.24479	0.02855	0.91344	0.033426
C189	C	0.24476	0.0283	0.82825	0.022445
C190	C	0.87545	0.23978	0.67912	-0.049549
C191	C	0.86564	0.21208	0.74014	-0.076014
C192	C	0.89445	0.21313	0.78957	-0.140875
C193	C	0.93376	0.2418	0.77893	0.085992
C194	C	0.94325	0.26929	0.71713	-0.14154
C195	C	0.91451	0.26845	0.66805	-0.084798
C196	C	0.93504	0.24389	0.95872	-0.131069
C197	C	0.96481	0.24231	0.91315	0.03068
C198	C	0.96531	0.24282	0.82795	0.028136
C199	C	0.11381	0.62406	0.67878	-0.052015
C200	C	0.09626	0.63415	0.74014	-0.076249
C201	C	0.06838	0.6055	0.78963	-0.138478
C202	C	0.05723	0.56608	0.77863	0.084568
C203	C	0.07483	0.55629	0.71646	-0.13997
C204	C	0.10291	0.58488	0.66738	-0.08369
C205	C	0.05867	0.56435	0.95802	-0.132509
C206	C	0.02676	0.53509	0.91293	0.03395
C207	C	0.02652	0.53476	0.82777	0.025716
C208	C	0.25614	0.38047	0.68757	-0.051712
C209	C	0.28485	0.39962	0.7463	-0.077232
C210	C	0.28526	0.42915	0.79213	-0.13723
C211	C	0.25695	0.44018	0.78045	0.082745
C212	C	0.22863	0.42117	0.72058	-0.13902
C213	C	0.22817	0.39164	0.67463	-0.083474
C214	C	0.25439	0.43969	0.95825	-0.133234
C215	C	0.25753	0.47179	0.91316	0.031092
C216	C	0.25713	0.47174	0.82803	0.026372
C217	C	0.24525	0.99735	0.95586	0.007872
C218	C	0.24597	0.99803	0.78767	-0.182394
C219	C	0.50119	0.99757	0.95555	0.005954
C220	C	0.50023	0.99783	0.78725	-0.186839
C221	C	0.50222	0.25388	0.95543	0.006169
C222	C	0.50218	0.25284	0.78725	-0.182754
C223	C	0.25863	0.50378	0.95562	0.007209
C224	C	0.25682	0.50238	0.78743	-0.183655
C225	C	0.99519	0.50384	0.95557	0.007394
C226	C	0.996	0.50348	0.78749	-0.185124
C227	C	0.99644	0.24271	0.95565	0.010038
C228	C	0.99697	0.24438	0.78745	-0.188742
C229	C	0.99664	0.24262	0.04161	0.007313
C230	C	0.99795	0.24392	0.2098	-0.185527
C231	C	0.99515	0.50363	0.04153	0.007308
C232	C	0.99582	0.5025	0.2096	-0.184702
C233	C	0.25863	0.50394	0.0416	0.009483
C234	C	0.2568	0.50318	0.20979	-0.187146
C235	C	0.50206	0.2539	0.04135	0.007915
C236	C	0.50146	0.25291	0.20954	-0.185575
C237	C	0.5014	0.99774	0.04148	0.00656
C238	C	0.5012	0.99864	0.20979	-0.185329
C239	C	0.24539	0.99714	0.04177	0.006571
C240	C	0.24659	0.99703	0.20996	-0.185935
C241	C	0.15092	0.24531	0.63886	0.642382
C242	C	0.35511	0.25887	0.62694	0.64042
C243	C	0.24042	0.14416	0.37072	0.641921
C244	C	0.25512	0.34888	0.35773	0.642706
C245	C	0.3543	0.25876	0.36924	0.640446
C246	C	0.15139	0.24451	0.35774	0.639559
C247	C	0.25564	0.34868	0.6387	0.642019
C248	C	0.24029	0.14525	0.6286	0.640983
C249	C	0.24506	0.84417	0.63923	0.641242
C250	C	0.25943	0.65404	0.62719	0.641375
C251	C	0.14442	0.65373	0.3707	0.643335
C252	C	0.3486	0.84417	0.35793	0.641026
C253	C	0.25955	0.65483	0.36959	0.643225
C254	C	0.24455	0.84305	0.35787	0.64084
C255	C	0.3483	0.8434	0.639	0.644263
C256	C	0.145	0.65486	0.62807	0.640621
C257	C	0.65501	0.15034	0.63943	0.643806
C258	C	0.84513	0.35471	0.62617	0.644773
C259	C	0.84544	0.23949	0.37076	0.639661
C260	C	0.65508	0.25331	0.35713	0.642781
C261	C	0.84437	0.35366	0.369	0.642569
C262	C	0.65599	0.15023	0.35818	0.64182
C263	C	0.6559	0.25435	0.63844	0.643892
C264	C	0.84449	0.23985	0.62836	0.641194
H1	H	0.19414	0.83659	0.7549	0.111776
H2	H	0.19441	0.88954	0.83693	0.107893
H3	H	0.29612	0.97459	0.70951	0.10298
H4	H	0.29523	0.92125	0.62727	0.11268
H5	H	0.2535	0.91598	0.92376	0.106705
H6	H	0.66237	0.10675	0.75496	0.110947
H7	H	0.60931	0.05404	0.83649	0.108311
H8	H	0.5245	0.07104	0.7091	0.10123
H9	H	0.57792	0.1234	0.62713	0.112875
H10	H	0.58374	0.08626	0.92427	0.106439
H11	H	0.39528	0.30784	0.74811	0.110135
H12	H	0.44525	0.30587	0.83611	0.108968
H13	H	0.43156	0.20588	0.70592	0.101284
H14	H	0.3818	0.20846	0.61794	0.113731
H15	H	0.41457	0.25002	0.9243	0.105623
H16	H	0.30964	0.66384	0.74633	0.109885
H17	H	0.30932	0.61266	0.834	0.107891
H18	H	0.20863	0.52501	0.70793	0.102199
H19	H	0.2096	0.57658	0.62006	0.113596
H20	H	0.25448	0.58742	0.92454	0.105926
H21	H	0.83512	0.39439	0.74651	0.110989
H22	H	0.88626	0.44491	0.83511	0.107498
H23	H	0.97406	0.43256	0.70782	0.101786
H24	H	0.92253	0.3822	0.61925	0.114032
H25	H	0.91238	0.41524	0.92448	0.106195
H26	H	0.10745	0.19367	0.75311	0.111214
H27	H	0.05436	0.19303	0.83517	0.108577
H28	H	0.07067	0.29525	0.71062	0.102754
H29	H	0.12349	0.29524	0.62822	0.114051
H30	H	0.0862	0.25126	0.92384	0.107126
H31	H	0.83616	0.18977	0.25081	0.110667
H32	H	0.8877	0.19087	0.16283	0.107972
H33	H	0.97468	0.29136	0.29054	0.10258
H34	H	0.92275	0.28962	0.37863	0.113088
H35	H	0.91265	0.24606	0.07343	0.107034
H36	H	0.10451	0.66346	0.25071	0.111236
H37	H	0.05402	0.6122	0.16229	0.108343
H38	H	0.067	0.5247	0.28891	0.102148
H39	H	0.1173	0.57635	0.37735	0.113998
H40	H	0.0839	0.58624	0.07252	0.10625
H41	H	0.30726	0.39242	0.24412	0.11226
H42	H	0.30843	0.44577	0.16229	0.107397
H43	H	0.20593	0.42964	0.28568	0.102756
H44	H	0.20547	0.37661	0.36795	0.114109
H45	H	0.25093	0.41452	0.07272	0.107626
H46	H	0.66282	0.30438	0.24173	0.110343
H47	H	0.60996	0.30435	0.16	0.108601
H48	H	0.52473	0.20249	0.28669	0.102462
H49	H	0.57798	0.20315	0.36869	0.113434
H50	H	0.58341	0.24553	0.07252	0.10648
H51	H	0.39212	0.83667	0.24237	0.111806
H52	H	0.4448	0.88961	0.16056	0.108473
H53	H	0.42794	0.9746	0.2879	0.103191
H54	H	0.37557	0.92127	0.37005	0.114656
H55	H	0.41265	0.91526	0.0728	0.106433
H56	H	0.19118	0.10355	0.25025	0.110752
H57	H	0.1932	0.05356	0.16225	0.10744
H58	H	0.29369	0.06796	0.29123	0.101591
H59	H	0.29108	0.11773	0.37924	0.113575
H60	H	0.24929	0.08476	0.07378	0.106336
H61	H	0.30973	0.66472	0.25007	0.116948
H62	H	0.30931	0.61349	0.16197	0.106937
H63	H	0.20876	0.52588	0.28846	0.099663
H64	H	0.20981	0.57747	0.37654	0.112171
H65	H	0.25455	0.58773	0.07111	0.107055
H66	H	0.83457	0.39401	0.2497	0.116616
H67	H	0.88591	0.44468	0.16156	0.107466
H68	H	0.97334	0.43148	0.28796	0.100608
H69	H	0.92164	0.38102	0.37601	0.112778
H70	H	0.91216	0.41504	0.07125	0.107866
H71	H	0.10914	0.19386	0.24064	0.116647
H72	H	0.05614	0.19329	0.1585	0.106776
H73	H	0.07102	0.29427	0.28635	0.101418
H74	H	0.1237	0.29415	0.36883	0.110772
H75	H	0.08655	0.2511	0.07047	0.105903
H76	H	0.19459	0.83548	0.23987	0.116668
H77	H	0.19524	0.88851	0.15764	0.106759
H78	H	0.29638	0.97342	0.2868	0.100753
H79	H	0.29502	0.92002	0.36936	0.111598
H80	H	0.25373	0.91563	0.07045	0.10643
H81	H	0.66336	0.10753	0.24033	0.117659
H82	H	0.61025	0.05516	0.15822	0.106809
H83	H	0.52552	0.07162	0.28762	0.100297
H84	H	0.57898	0.12361	0.37015	0.111432
H85	H	0.58407	0.08656	0.07078	0.107451
H86	H	0.39433	0.30776	0.24791	0.118531
H87	H	0.44435	0.30584	0.15963	0.106401
H88	H	0.431	0.2061	0.29	0.100472
H89	H	0.3812	0.20861	0.37807	0.113077
H90	H	0.41435	0.25014	0.07094	0.107534
H91	H	0.66366	0.30449	0.75619	0.117584
H92	H	0.61078	0.30407	0.83872	0.107222
H93	H	0.52556	0.203	0.70982	0.100507
H94	H	0.57882	0.20408	0.62702	0.111028
H95	H	0.5837	0.24555	0.92582	0.106804
H96	H	0.391	0.83585	0.75623	0.115272
H97	H	0.44352	0.88882	0.83837	0.107111
H98	H	0.42724	0.97381	0.70984	0.09962
H99	H	0.3751	0.92047	0.62728	0.113146
H100	H	0.41229	0.91498	0.9263	0.106238
H101	H	0.19126	0.10525	0.75022	0.115976
H102	H	0.19321	0.05525	0.83834	0.106722
H103	H	0.29294	0.06859	0.70767	0.099532
H104	H	0.29042	0.11838	0.61978	0.112078
H105	H	0.24904	0.0851	0.92713	0.10796
H106	H	0.83513	0.19001	0.74822	0.117041
H107	H	0.88671	0.19116	0.83619	0.106764
H108	H	0.9736	0.29187	0.70895	0.100538
H109	H	0.92165	0.29006	0.621	0.112258
H110	H	0.91226	0.24612	0.92685	0.107042
H111	H	0.10509	0.66475	0.74842	0.116893
H112	H	0.05442	0.61342	0.83658	0.106532
H113	H	0.0666	0.52583	0.70798	0.099119
H114	H	0.11711	0.57753	0.62005	0.113171
H115	H	0.08384	0.58672	0.92576	0.10827
H116	H	0.30694	0.39121	0.75445	0.115297
H117	H	0.30801	0.44443	0.83685	0.106524
H118	H	0.20646	0.42943	0.71143	0.099748
H119	H	0.20614	0.37659	0.62854	0.112466
H120	H	0.25096	0.41424	0.92613	0.108099
H121	H	0.24499	0.99763	0.72223	0.105831
H122	H	0.50045	0.99733	0.72178	0.107344
H123	H	0.50284	0.25371	0.7218	0.106347
H124	H	0.25723	0.50237	0.72197	0.106137
H125	H	0.99568	0.50392	0.72205	0.105868
H126	H	0.99662	0.24386	0.722	0.108011
H127	H	0.99789	0.24326	0.27525	0.106946
H128	H	0.99547	0.5027	0.27505	0.105744
H129	H	0.25718	0.50341	0.27525	0.107542
H130	H	0.50189	0.25378	0.27499	0.106201
H131	H	0.5017	0.99841	0.27525	0.106156
H132	H	0.24577	0.99633	0.27541	0.107122
H137	H	0.3715	0.34913	0.61225	0.388723
H138	H	0.19262	0.2131	0.76169	0.388341
H141	H	0.28702	0.30664	0.23528	0.386011
H144	H	0.15027	0.12824	0.38498	0.391169
H145	H	0.27896	0.22284	0.67401	0.436189
H146	H	0.27672	0.22021	0.32347	0.43448
H147	H	0.14908	0.20403	0.50117	0.436802
H148	H	0.29603	0.35056	0.49558	0.43877
H161	H	0.34963	0.72843	0.61261	0.389414
H162	H	0.21224	0.77009	0.76171	0.386565
H165	H	0.3068	0.77001	0.23574	0.387043
H168	H	0.12818	0.72806	0.3848	0.390661
H169	H	0.22276	0.69371	0.67415	0.436128
H170	H	0.22049	0.69352	0.3236	0.43451
H171	H	0.2039	0.80481	0.50138	0.437534
H172	H	0.35046	0.80493	0.49589	0.439818
H185	H	0.77077	0.37069	0.61117	0.388865
H186	H	0.72914	0.19236	0.76192	0.387025
H189	H	0.72932	0.28593	0.23493	0.387126
H192	H	0.7712	0.14925	0.38567	0.388689
H193	H	0.80554	0.27874	0.67367	0.435148
H194	H	0.8057	0.27583	0.32324	0.435427
H195	H	0.69448	0.14832	0.50185	0.441259
H196	H	0.69423	0.29473	0.49479	0.439897
O1	O	0.16184	0.2212	0.65896	-0.655337
O2	O	0.16504	0.26973	0.58137	-0.612218
O3	O	0.34775	0.28636	0.63857	-0.655989
O4	O	0.33776	0.23117	0.57658	-0.608964
O5	O	0.21301	0.15162	0.3589	-0.658096
O6	O	0.26807	0.16148	0.42117	-0.609467
O7	O	0.27907	0.33771	0.33773	-0.656504
O8	O	0.23059	0.33488	0.41509	-0.611461
O9	O	0.34749	0.28671	0.35978	-0.623834
O10	O	0.33621	0.23013	0.41725	-0.621189
O11	O	0.16331	0.2213	0.3368	-0.623458
O12	O	0.1639	0.26771	0.41758	-0.619618
O13	O	0.27862	0.33652	0.65984	-0.624314
O14	O	0.23244	0.33623	0.57892	-0.619892
O15	O	0.21239	0.15216	0.63796	-0.624976
O16	O	0.26893	0.16321	0.58052	-0.619502
O17	O	0.17755	0.21629	0.501	-1.045075
O18	O	0.30313	0.27137	0.49654	-1.174586
O19	O	0.22798	0.19643	0.50077	-1.175523
O20	O	0.28364	0.32208	0.49584	-1.047489
O21	O	0.23582	0.26562	0.58791	-1.174408
O22	O	0.27119	0.23057	0.62449	-1.047503
O23	O	0.269	0.22811	0.37288	-1.044733
O24	O	0.23421	0.26382	0.40902	-1.175118
O26	O	0.21049	0.20643	0.73592	-0.970259
O27	O	0.34851	0.35058	0.59799	-0.965298
O29	O	0.1489	0.1513	0.39904	-0.968032
O32	O	0.29351	0.28869	0.26122	-0.96737
O37	O	0.2209	0.80917	0.65943	-0.654669
O38	O	0.2693	0.85438	0.58139	-0.610443
O39	O	0.28671	0.68903	0.63851	-0.657349
O40	O	0.23149	0.64339	0.57735	-0.60935
O41	O	0.15184	0.68863	0.3596	-0.65885
O42	O	0.1617	0.64319	0.42078	-0.609557
O43	O	0.33774	0.80915	0.33771	-0.655043
O44	O	0.33455	0.8544	0.4157	-0.610363
O45	O	0.28731	0.68973	0.3604	-0.62706
O46	O	0.23072	0.64399	0.41722	-0.620539
O47	O	0.22126	0.80798	0.33675	-0.623383
O48	O	0.26738	0.85358	0.41827	-0.620049
O49	O	0.33647	0.80836	0.66036	-0.625135
O50	O	0.33583	0.85385	0.57878	-0.622316
O51	O	0.152	0.68973	0.63703	-0.62475
O52	O	0.16315	0.64406	0.58074	-0.619856
O53	O	0.21602	0.78848	0.50125	-1.046033
O54	O	0.27145	0.71836	0.49684	-1.174034
O55	O	0.19655	0.71828	0.50088	-1.173513
O56	O	0.32199	0.78861	0.49608	-1.048685
O57	O	0.26542	0.77972	0.58839	-1.1738
O58	O	0.2305	0.70928	0.62475	-1.047239
O59	O	0.22831	0.7091	0.37304	-1.044689
O60	O	0.26374	0.7796	0.40907	-1.175732
O62	O	0.2058	0.74558	0.73603	-0.968189
O63	O	0.35082	0.75275	0.59825	-0.965935
O65	O	0.15129	0.75238	0.39926	-0.967699
O68	O	0.28899	0.74545	0.26149	-0.968391
O73	O	0.69001	0.1613	0.65988	-0.65585
O74	O	0.6448	0.1643	0.5815	-0.612282
O75	O	0.81019	0.34722	0.63708	-0.659097
O76	O	0.8558	0.33744	0.57628	-0.610196
O77	O	0.81053	0.21206	0.3594	-0.656101
O78	O	0.8559	0.26739	0.42066	-0.609368
O79	O	0.6901	0.2774	0.33689	-0.655725
O80	O	0.64479	0.22914	0.41507	-0.611349
O81	O	0.80949	0.34657	0.35981	-0.625254
O82	O	0.85517	0.33563	0.41654	-0.621315
O83	O	0.69104	0.16197	0.33698	-0.622242
O84	O	0.64551	0.16274	0.41838	-0.620879
O85	O	0.69097	0.27766	0.65954	-0.624271
O86	O	0.64539	0.23139	0.57823	-0.620764
O87	O	0.80965	0.21202	0.6377	-0.624789
O88	O	0.85519	0.26858	0.58052	-0.62169
O89	O	0.71069	0.17678	0.50148	-1.051111
O90	O	0.78078	0.30223	0.49603	-1.174717
O91	O	0.78091	0.22741	0.50081	-1.17472
O92	O	0.71056	0.28262	0.49521	-1.050033
O93	O	0.71948	0.23515	0.58795	-1.173657
O94	O	0.78996	0.27079	0.62425	-1.044921
O95	O	0.79004	0.26812	0.37257	-1.045265
O96	O	0.71955	0.23313	0.40874	-1.173928
O98	O	0.75364	0.21033	0.73611	-0.968619
O99	O	0.74645	0.34755	0.59692	-0.96517
O101	O	0.74678	0.14793	0.3997	-0.964777
O104	O	0.7538	0.29244	0.26074	-0.969084
Zr1	Zr	0.20642	0.20628	0.60958	2.365998
Zr2	Zr	0.29749	0.29561	0.60189	2.362063
Zr3	Zr	0.20398	0.20214	0.39523	2.364227
Zr4	Zr	0.29357	0.29296	0.38754	2.364681
Zr5	Zr	0.21446	0.28548	0.49834	2.356183
Zr6	Zr	0.28625	0.21307	0.49879	2.360785
Zr7	Zr	0.20603	0.74966	0.60971	2.364605
Zr8	Zr	0.29563	0.74831	0.60217	2.362379
Zr9	Zr	0.20209	0.74804	0.39544	2.363643
Zr10	Zr	0.29312	0.74962	0.38777	2.364971
Zr11	Zr	0.2852	0.8209	0.49864	2.355165
Zr12	Zr	0.21325	0.67673	0.49898	2.361724
Zr13	Zr	0.74956	0.20595	0.60984	2.366072
Zr14	Zr	0.75091	0.29682	0.60128	2.361413
Zr15	Zr	0.75107	0.20303	0.39544	2.36099
Zr16	Zr	0.74955	0.29247	0.38701	2.366085
Zr17	Zr	0.67825	0.21347	0.49832	2.357959
Zr18	Zr	0.82243	0.28567	0.49846	2.361114
