data_image0                           '
_cell_length_a                         14.779687
_cell_length_b                         14.779449
_cell_length_c                         14.779330
_cell_angle_alpha                      60.001320
_cell_angle_beta                       59.999931
_cell_angle_gamma                      60.000118


_symmetry_space_group_name_H-M    "P 1"
_symmetry_int_tables_number       1

loop_
  _symmetry_equiv_pos_as_xyz
  'x, y, z'


loop_
   _atom_site_label
    _atom_site_type_symbol
   _atom_site_fract_x
   _atom_site_fract_y
   _atom_site_fract_z
   _atom_site_charge
   Zr1        Zr      0.880328     0.880328     0.119671              2.375810
   Zr2        Zr      0.119671     0.119672     0.880328              2.375812
   Zr3        Zr      0.119671     0.880328     0.880328              2.375697
   Zr4        Zr      0.880328     0.119671     0.119672              2.375778
   Zr5        Zr      0.880328     0.119671     0.880328              2.375740
   Zr6        Zr      0.119671     0.880328     0.119672              2.375863
   O         O       0.067381     0.067381     0.067381              -1.068799
   O         O       0.067381     0.067380     0.797858              -1.068792
   O         O       0.067380     0.797857     0.067380              -1.068785
   O         O       0.797857     0.067380     0.067381              -1.068776
   O         O       0.950305     0.950303     0.950304              -1.148480
   O         O       0.950304     0.950305     0.149088              -1.148547
   O         O       0.950303     0.149087     0.950305              -1.148496
   O         O       0.149087     0.950303     0.950304              -1.148490
   O9         O       0.920275     0.738121     0.074009              -0.620705
   O10        O       0.074012     0.267591     0.920275              -0.620609
   O11        O       0.738119     0.920276     0.267592              -0.620617
   O12        O       0.267592     0.074012     0.738121              -0.620667
   O13        O       0.074007     0.920277     0.738119              -0.620615
   O14        O       0.920280     0.074008     0.267593              -0.620641
   O15        O       0.267595     0.738117     0.920278              -0.620631
   O16        O       0.738118     0.267594     0.074011              -0.620564
   O17        O       0.738120     0.074005     0.920279              -0.620619
   O18        O       0.267593     0.920280     0.074006              -0.620613
   O19        O       0.920280     0.267595     0.738119              -0.620633
   O20        O       0.074008     0.738119     0.267592              -0.620661
   O21        O       0.074010     0.267593     0.738120              -0.620651
   O22        O       0.920278     0.738118     0.267594              -0.620625
   O23        O       0.267593     0.074009     0.920276              -0.620580
   O24        O       0.738119     0.920276     0.074008              -0.620647
   O25        O       0.920277     0.074007     0.738121              -0.620686
   O26        O       0.074011     0.920278     0.267590              -0.620587
   O27        O       0.738119     0.267592     0.920276              -0.620605
   O28        O       0.267591     0.738120     0.074013              -0.620604
   O29        O       0.267596     0.920278     0.738119              -0.620593
   O30        O       0.738118     0.074008     0.267593              -0.620666
   O31        O       0.074006     0.738119     0.920278              -0.620638
   O32        O       0.920280     0.267594     0.074006              -0.620629
   H         H       0.094152     0.094152     0.717542              0.424088
   H         H       0.717541     0.094151     0.094153              0.424086
   H         H       0.094153     0.094153     0.094152              0.424128
   H         H       0.094151     0.717542     0.094153              0.424103
   H5         H       0.139395     0.590935     0.849058              0.113233
   H6         H       0.139402     0.420616     0.849052              0.113218
   H7         H       0.849061     0.420610     0.139393              0.113186
   H8         H       0.849054     0.590929     0.139399              0.113186
   H9         H       0.590928     0.849052     0.420618              0.113240
   H10        H       0.420614     0.849060     0.590932              0.113194
   H11        H       0.420619     0.139402     0.590927              0.113180
   H12        H       0.590934     0.139394     0.420614              0.113197
   H13        H       0.139397     0.849057     0.590931              0.113221
   H14        H       0.139401     0.849054     0.420614              0.113241
   H15        H       0.849059     0.139395     0.420613              0.113180
   H16        H       0.849055     0.139398     0.590929              0.113183
   H17        H       0.590932     0.420615     0.139397              0.113236
   H18        H       0.420617     0.590929     0.139399              0.113209
   H19        H       0.420614     0.590932     0.849058              0.113188
   H20        H       0.590930     0.420617     0.849056              0.113171
   H21        H       0.590933     0.139395     0.849058              0.113200
   H22        H       0.420615     0.139397     0.849056              0.113245
   H23        H       0.420611     0.849060     0.139394              0.113213
   H24        H       0.590928     0.849057     0.139396              0.113211
   H25        H       0.139396     0.590931     0.420615              0.113213
   H26        H       0.139399     0.420620     0.590926              0.113195
   H27        H       0.849061     0.420615     0.590930              0.113163
   H28        H       0.849058     0.590926     0.420619              0.113171
   C1         C       0.994449     0.410983     0.994444              -0.034079
   C2         C       0.994446     0.600122     0.994446              -0.034065
   C3         C       0.076295     0.458805     0.912041              -0.090394
   C4         C       0.912048     0.458804     0.076288              -0.090491
   C5         C       0.912044     0.552857     0.076292              -0.090463
   C6         C       0.076291     0.552858     0.912045              -0.090547
   C7         C       0.996016     0.308325     0.996010              0.639716
   C8         C       0.996010     0.699648     0.996014              0.639794
   C9         C       0.410985     0.994447     0.600122              -0.034122
   C10        C       0.600123     0.994447     0.410984              -0.033980
   C11        C       0.458804     0.912047     0.552860              -0.090417
   C12        C       0.458807     0.076293     0.552858              -0.090536
   C13        C       0.552861     0.076290     0.458803              -0.090420
   C14        C       0.552859     0.912044     0.458805              -0.090562
   C15        C       0.308326     0.996015     0.699648              0.639707
   C16        C       0.699648     0.996011     0.308324              0.639726
   C17        C       0.994448     0.994446     0.410982              -0.033989
   C18        C       0.994447     0.994446     0.600122              -0.034028
   C19        C       0.076293     0.912044     0.458804              -0.090489
   C20        C       0.912047     0.076290     0.458805              -0.090472
   C21        C       0.912045     0.076292     0.552857              -0.090557
   C22        C       0.076291     0.912045     0.552856              -0.090518
   C23        C       0.996016     0.996013     0.308323              0.639691
   C24        C       0.996011     0.996013     0.699649              0.639774
   C25        C       0.410984     0.600123     0.994448              -0.034067
   C26        C       0.600123     0.410983     0.994446              -0.034048
   C27        C       0.458803     0.552861     0.076293              -0.090468
   C28        C       0.458805     0.552859     0.912047              -0.090516
   C29        C       0.552861     0.458803     0.912044              -0.090443
   C30        C       0.552860     0.458805     0.076290              -0.090507
   C31        C       0.308325     0.699648     0.996015              0.639695
   C32        C       0.699648     0.308325     0.996013              0.639635
   C33        C       0.410983     0.994448     0.994445              -0.034097
   C34        C       0.600122     0.994445     0.994446              -0.034086
   C35        C       0.458805     0.076292     0.912044              -0.090526
   C36        C       0.458804     0.912047     0.076289              -0.090451
   C37        C       0.552857     0.912045     0.076291              -0.090455
   C38        C       0.552858     0.076289     0.912046              -0.090514
   C39        C       0.308326     0.996014     0.996011              0.639677
   C40        C       0.699647     0.996011     0.996013              0.639723
   C41        C       0.994449     0.410984     0.600122              -0.033988
   C42        C       0.994447     0.600122     0.410983              -0.033939
   C43        C       0.076292     0.458806     0.552857              -0.090531
   C44        C       0.912049     0.458804     0.552859              -0.090510
   C45        C       0.912047     0.552857     0.458805              -0.090448
   C46        C       0.076290     0.552859     0.458804              -0.090504
   C47        C       0.996014     0.308327     0.699647              0.639697
   C48        C       0.996012     0.699646     0.308326              0.639664




